/*--------------------------------*- C++ -*----------------------------------*\
  =========                 |
  \\      /  F ield         | OpenFOAM: The Open Source CFD Toolbox
   \\    /   O peration     | Website:  https://openfoam.org
    \\  /    A nd           | Version:  dev
     \\/     M anipulation  |
\*---------------------------------------------------------------------------*/
FoamFile
{
    version     2.0;
    format      ascii;
    class       dictionary;
    location    "system";
    object      decomposeParDict;
}
// * * * * * * * * * * * * * * * * * * * * * * * * * * * * * * * * * * * * * //

numberOfSubdomains 1;

//- Keep all of faceSet on a single processor. This puts all cells
//  connected with a point, edge or face on the same processor.
//  (just having face connected cells might not guarantee a balanced
//  decomposition)
// The processor can be -1 (the decompositionMethod chooses the processor
// for a good load balance) or explicitly provided (upsets balance).
//singleProcessorFaceSets ((fRight 0));

method          simple;

multiLevelCoeffs
{
    // Decomposition methods to apply in turn. This is like hierarchical but
    // fully general - every method can be used at every level.

    level0
    {
        numberOfSubdomains  3;
        method scotch;
    }
    level1
    {
        numberOfSubdomains  2;
        method simple;
        simpleCoeffs
        {
            n            (1 1 2);
            delta        0.001;
        }
    }
}

simpleCoeffs
{
    n               (1 1 3);
    delta           0.001;
}

hierarchicalCoeffs
{
    n               (1 3 2);
    delta           0.001;
    order           xyz;
}

manualCoeffs
{
    dataFile        "cellDecomposition";
}

scotchCoeffs
{
}

// ************************************************************************* //
