/*--------------------------------*- C++ -*----------------------------------*\
  =========                 |
  \\      /  F ield         | OpenFOAM: The Open Source CFD Toolbox
   \\    /   O peration     | Website:  https://openfoam.org
    \\  /    A nd           | Version:  dev
     \\/     M anipulation  |
\*---------------------------------------------------------------------------*/
FoamFile
{
    version     2.0;
    format      ascii;
    class       polyBoundaryMesh;
    location    "constant/polyMesh";
    object      boundary;
}
// * * * * * * * * * * * * * * * * * * * * * * * * * * * * * * * * * * * * * //

4
(
    base
    {
        type            wall;
        inGroups        1(wall);
        nFaces          96;
        startFace       2700;
    }
    outlet
    {
        type            patch;
        nFaces          100;
        startFace       2796;
    }
    sides
    {
        type            patch;
        nFaces          400;
        startFace       2896;
    }
    inlet
    {
        type            patch;
        nFaces          4;
        startFace       3296;
    }
)

// ************************************************************************* //
