/*--------------------------------*- C++ -*----------------------------------*\
| =========                 |                                                 |
| \\      /  F ield         | OpenFOAM: The Open Source CFD Toolbox           |
|  \\    /   O peration     | Version:  4.x                                   |
|   \\  /    A nd           | Web:      www.OpenFOAM.org                      |
|    \\/     M anipulation  |                                                 |
\*---------------------------------------------------------------------------*/
FoamFile
{
    version     2.0;
    format      ascii;
    class       dictionary;
    location    "constant";
    object      chemistryProperties;
}
// * * * * * * * * * * * * * * * * * * * * * * * * * * * * * * * * * * * * * //

chemistryType
{
    chemistrySolver   EulerImplicit;
    chemistryThermo   rho;
}

/*chemistryType
{
    chemistrySolver   noChemistrySolver;
    chemistryThermo   rho;
}*/

chemistry       off;

turbulentReaction off;

initialChemicalTimeStep 1e-07;

EulerImplicitCoeffs
{
    cTauChem        1;
    equilibriumRateLimiter off;
}


// ************************************************************************* //
