/*--------------------------------*- C++ -*----------------------------------*\
  =========                 |
  \\      /  F ield         | OpenFOAM: The Open Source CFD Toolbox
   \\    /   O peration     | Website:  https://openfoam.org
    \\  /    A nd           | Version:  dev
     \\/     M anipulation  |
\*---------------------------------------------------------------------------*/
FoamFile
{
    version     2.0;
    format      ascii;
    class       dictionary;
    location    "system";
    object      decomposeParDict;
}
// * * * * * * * * * * * * * * * * * * * * * * * * * * * * * * * * * * * * * //

numberOfSubdomains 1;

//Optional decomposition constraints
constraints
{
    refinementHistory
    {
        //- Decompose cells such that all cell originating from single cell
        //  end up on same processor
        type    refinementHistory;
    }
}

method scotch;

multiLevelCoeffs
{
    // Decomposition methods to apply in turn. This is like hierarchical but
    // fully general - every method can be used at every level.

    level0
    {
        numberOfSubdomains  3;
        method scotch;
    }
    level1
    {
        numberOfSubdomains  2;
        method simple;
        simpleCoeffs
        {
            n            (1 1 2);
            delta        0.001;
        }
    }
}

simpleCoeffs
{
    n               (1 1 3);
    delta           0.001;
}

// ************************************************************************* //
