/*--------------------------------*- C++ -*----------------------------------*\
  =========                 |
  \\      /  F ield         | OpenFOAM: The Open Source CFD Toolbox
   \\    /   O peration     | Website:  https://openfoam.org
    \\  /    A nd           | Version:  7
     \\/     M anipulation  |
\*---------------------------------------------------------------------------*/
FoamFile
{
    version     2.0;
    format      ascii;
    class       dictionary;
    location    "constant";
    object      SurfaceFilmProperties;
}
// * * * * * * * * * * * * * * * * * * * * * * * * * * * * * * * * * * * * * //

active          true;

surfaceFilmModel thermoSingleLayer;

regionName      filmRegion;

thermoSingleLayerCoeffs
{
    filmThermoModel liquid;
    liquidCoeffs
    {
        useReferenceValues  no;
        liquid          H2O;
    }

    filmViscosityModel  liquid;

    Tmax 373.15;
    Tmin 200;

    hydrophilic     yes;
    deltaWet        1e-4;
    hydrophilicDryScale       0.02;
    hydrophilicWetScale       0.5;

    turbulence      laminar;
    laminarCoeffs
    {
        Cf              0.005;
    }

    radiationModel  standardRadiation;
    standardRadiationCoeffs
    {
        beta     0.75;
        kappaBar 0.25;
    }

    phaseChangeModel standardPhaseChange;
    standardPhaseChangeCoeffs
    {
        Tb              373;
        deltaMin        1e-6;
        L               1.0;
    }

    upperSurfaceModels
    {
        heatTransferModel constant;
        constantCoeffs
        {
           c0              10;
        }
    }

    lowerSurfaceModels
    {
        heatTransferModel constant;
        constantCoeffs
        {
            c0             500;
        }
    }

    injectionModels
    ();

    forces
    (
        thermocapillary
        distributionContactAngle
    );

    distributionContactAngleCoeffs
    {
        Ccf             0.016;

        distribution
        {
            type            normal;
            normalDistribution
            {
                minValue        50;
                maxValue        100;
                expectation     75;
                variance        10;
            }
        }

        zeroForcePatches ();
    }
}
