/*--------------------------------*- C++ -*----------------------------------*\
  =========                 |
  \\      /  F ield         | OpenFOAM: The Open Source CFD Toolbox
   \\    /   O peration     | Website:  https://openfoam.org
    \\  /    A nd           | Version:  7
     \\/     M anipulation  |
\*---------------------------------------------------------------------------*/
FoamFile
{
    version     2.0;
    format      ascii;
    class       dictionary;
    object      topoSetDict;
}

// * * * * * * * * * * * * * * * * * * * * * * * * * * * * * * * * * * * * * //

actions
(
    {
        name    f0;
        type    faceSet;
        action  new;
        source  boxToFace;
        sourceInfo
        {
            box (-10 -0.001 -0.5) (10 0.001 0.5);
        }
    }


    {
        name    f1;
        type    faceSet;
        action  new;
        source  boxToFace;
        sourceInfo
        {
            box  (-10 -0.001 0.499) (10 1.001 0.501);
        }
    }

     {
        name    f2;
        type    faceSet;
        action  new;
        source  boxToFace;
        sourceInfo
        {
            box (-10 0.999 -0.5) (10 1.001 0.5);
        }
    }

     {
        name    f3;
        type    faceSet;
        action  new;
        source  boxToFace;
        sourceInfo
        {
            box (-10 -0.001 -0.499) (10 1.001 -0.501);
        }
    }
);

// ************************************************************************* //
