/*--------------------------------*- C++ -*----------------------------------*\
| =========                 |                                                 |
| \\      /  F ield         | OpenFOAM: The Open Source CFD Toolbox           |
|  \\    /   O peration     | Version:  4.x                                   |
|   \\  /    A nd           | Web:      www.OpenFOAM.org                      |
|    \\/     M anipulation  |                                                 |
\*---------------------------------------------------------------------------*/
FoamFile
{
    version     2.0;
    format      ascii;
    class       dictionary;
    location    "constant";
    object      dynamicMeshDict;
}
// * * * * * * * * * * * * * * * * * * * * * * * * * * * * * * * * * * * * * //

dynamicFvMesh   dynamicRefineBalanceMultiRegionFvMesh;

allowableImbalance 0.15;

dynamicRefineBalanceMultiRegionFvMeshCoeffs
{
    // How often to refine
    refineInterval 4;

    // Field to be refinement on
    fields (sQ varsQ);
    
    //Refinement field dictionaries
    "(sQ|varsQ)"
    {
        lowerRefineLevel    0.001;
        upperRefineLevel    1;
        unrefineLevel       0.001;
        maxRefinement       4;
        nBufferLayers       4;
    }

    sEnst
    {
        lowerRefineLevel    0.1;
        upperRefineLevel    1;
        unrefineLevel       0.1;
        maxRefinement       4;
        nBufferLayers       1;
    }

    // Stop refinement if maxCells reached
    maxCells        1000000;

    // Flux field and corresponding velocity field. Fluxes on changed
    // faces get recalculated by interpolating the velocity. Use 'none'
    // on surfaceScalarFields that do not need to be reinterpolated.
    correctFluxes
    (
        (phi none)
        (phi_0 none)
        (phi_0_0 none)
        (ghf none)
    );

    // Write the refinement level as a volScalarField
    dumpLevel       true;
}


// ************************************************************************* //
