/*--------------------------------*- C++ -*----------------------------------*\
  =========                 |
  \\      /  F ield         | OpenFOAM: The Open Source CFD Toolbox
   \\    /   O peration     | Website:  https://openfoam.org
    \\  /    A nd           | Version:  dev
     \\/     M anipulation  |
\*---------------------------------------------------------------------------*/
FoamFile
{
    version     2.0;
    format      ascii;
    class       extendedFeatureEdgeMesh;
    location    "constant/extendedFeatureEdgeMesh";
    object      slopedIncline.extendedFeatureEdgeMesh;
}
// * * * * * * * * * * * * * * * * * * * * * * * * * * * * * * * * * * * * * //

// points

1046
(
(-50 -5 -50)
(-50 5 -50)
(60 -5 -50)
(60 30 -50)
(60 -5 50)
(-50 -5 50)
(-50 5 50)
(60 30 50)
(-49.7808 4.99166 -50)
(4.82506 18.7039 -50)
(5.02031 18.806 -50)
(5.21578 18.9077 -50)
(3.27116 17.8718 -50)
(3.4646 17.9773 -50)
(2.6922 17.5528 -50)
(2.88496 17.6595 -50)
(3.07794 17.7659 -50)
(-49.5615 4.98381 -50)
(-49.3423 4.97643 -50)
(-49.123 4.96953 -50)
(-45.8328 4.9235 -50)
(-45.6134 4.92427 -50)
(-45.394 4.92551 -50)
(-34.0153 5.64944 -50)
(-33.7975 5.67601 -50)
(-31.1892 6.03189 -50)
(-30.9723 6.06463 -50)
(-30.7554 6.09784 -50)
(-30.5386 6.13153 -50)
(4.24066 18.395 -50)
(4.43524 18.4984 -50)
(4.63004 18.6014 -50)
(5.41147 19.009 -50)
(5.60737 19.1098 -50)
(5.8035 19.2102 -50)
(-48.9037 4.96311 -50)
(-48.6844 4.95716 -50)
(-48.4651 4.9517 -50)
(-39.2565 5.15473 -50)
(-39.0377 5.16986 -50)
(-38.8189 5.18546 -50)
(-38.6001 5.20154 -50)
(-38.3813 5.2181 -50)
(-38.1626 5.23513 -50)
(-33.5798 5.70306 -50)
(-33.3622 5.73058 -50)
(-33.1446 5.75857 -50)
(-32.9271 5.78704 -50)
(-32.7096 5.81599 -50)
(-32.4922 5.8454 -50)
(-30.3219 6.16568 -50)
(-30.1053 6.20032 -50)
(-29.8887 6.23542 -50)
(-29.6723 6.271 -50)
(-29.4559 6.30705 -50)
(-29.2395 6.34358 -50)
(-29.0233 6.38057 -50)
(-28.8071 6.41804 -50)
(-28.5911 6.45598 -50)
(-19.8155 8.41537 -50)
(-19.6038 8.47294 -50)
(-18.3364 8.82806 -50)
(-18.1256 8.88886 -50)
(1.53724 16.9214 -50)
(1.73031 17.0256 -50)
(1.92315 17.1302 -50)
(2.11576 17.2352 -50)
(2.30814 17.3406 -50)
(2.50029 17.4465 -50)
(9.57015 21.0367 -50)
(9.77045 21.1285 -50)
(-45.1746 4.92723 -50)
(-44.9552 4.92943 -50)
(-44.7359 4.93211 -50)
(-42.1043 5.00164 -50)
(-41.8851 5.01054 -50)
(-41.6659 5.01993 -50)
(-41.4468 5.02979 -50)
(-40.1323 5.09902 -50)
(-39.9133 5.11223 -50)
(-37.9439 5.25265 -50)
(-37.7253 5.27064 -50)
(-37.5067 5.2891 -50)
(-37.2881 5.30805 -50)
(-37.0696 5.32747 -50)
(-36.8511 5.34737 -50)
(-36.6327 5.36775 -50)
(-36.4143 5.3886 -50)
(-36.196 5.40993 -50)
(-34.8869 5.54792 -50)
(-34.6689 5.57259 -50)
(-27.7276 6.61246 -50)
(-27.512 6.65276 -50)
(-17.9149 8.95012 -50)
(-17.7044 9.01184 -50)
(-17.494 9.07402 -50)
(-17.2838 9.13666 -50)
(-17.0737 9.19976 -50)
(-16.8637 9.26332 -50)
(-4.35616 13.9943 -50)
(-4.15668 14.0856 -50)
(-3.95741 14.1774 -50)
(-3.75834 14.2696 -50)
(-3.55947 14.3622 -50)
(-3.3608 14.4553 -50)
(-3.16234 14.5487 -50)
(-2.96408 14.6427 -50)
(0.956682 16.6114 -50)
(1.15043 16.7143 -50)
(1.34395 16.8176 -50)
(3.65828 18.0823 -50)
(3.85218 18.187 -50)
(4.0463 18.2912 -50)
(9.37005 20.9445 -50)
(9.97094 21.2199 -50)
(10.1716 21.3108 -50)
(10.3725 21.4013 -50)
(11.7842 22.0227 -50)
(11.9866 22.1097 -50)
(14.6351 23.2006 -50)
(14.84 23.2814 -50)
(15.0452 23.3618 -50)
(15.2505 23.4417 -50)
(24.2304 26.4522 -50)
(24.4425 26.5121 -50)
(36.2751 29.0956 -50)
(36.4928 29.1295 -50)
(45.6904 30.1224 -50)
(45.9103 30.1358 -50)
(-48.2458 4.94672 -50)
(-48.0264 4.94221 -50)
(-47.8071 4.93818 -50)
(-47.5877 4.93464 -50)
(-47.3684 4.93157 -50)
(-47.149 4.92898 -50)
(-46.4909 4.92408 -50)
(-46.2715 4.92341 -50)
(-46.0521 4.92322 -50)
(-44.5165 4.93527 -50)
(-44.2972 4.93891 -50)
(-44.0778 4.94303 -50)
(-42.762 4.97779 -50)
(-42.5428 4.98526 -50)
(-42.3235 4.99321 -50)
(-39.6944 5.12592 -50)
(-39.4754 5.14009 -50)
(-35.9777 5.43174 -50)
(-35.7594 5.45402 -50)
(-35.5412 5.47679 -50)
(-35.3231 5.50002 -50)
(-35.105 5.52374 -50)
(-34.451 5.59773 -50)
(-34.2331 5.62335 -50)
(-32.2749 5.8753 -50)
(-32.0576 5.90567 -50)
(-31.8404 5.93651 -50)
(-31.6233 5.96783 -50)
(-31.4062 5.99962 -50)
(-24.0743 7.36141 -50)
(-23.8603 7.40968 -50)
(-21.0883 8.07966 -50)
(-20.8758 8.13446 -50)
(-20.6635 8.18971 -50)
(-20.4513 8.24543 -50)
(-20.2393 8.30162 -50)
(-20.0273 8.35826 -50)
(-18.9695 8.64843 -50)
(-18.7583 8.70784 -50)
(-18.5473 8.76772 -50)
(-16.2346 9.45674 -50)
(-16.0252 9.52212 -50)
(-15.8159 9.58797 -50)
(-15.6068 9.65427 -50)
(-11.4562 11.0758 -50)
(-11.2503 11.1516 -50)
(5.99984 19.3102 -50)
(6.1964 19.4098 -50)
(6.39318 19.5089 -50)
(11.582 21.9352 -50)
(23.3837 26.2076 -50)
(23.5952 26.2694 -50)
(42.615 29.8847 -50)
(42.8344 29.9047 -50)
(59.3409 30.0501 -50)
(59.5606 30.0339 -50)
(59.7803 30.0172 -50)
(-46.9296 4.92687 -50)
(-46.7103 4.92524 -50)
(-41.2276 5.04013 -50)
(-41.0085 5.05095 -50)
(-40.7894 5.06225 -50)
(-40.5704 5.07403 -50)
(-40.3513 5.08628 -50)
(-27.2964 6.69352 -50)
(-27.0809 6.73476 -50)
(-26.8656 6.77647 -50)
(-24.2884 7.3136 -50)
(-23.2189 7.5573 -50)
(-23.0054 7.60744 -50)
(-22.3653 7.76066 -50)
(-22.1522 7.81267 -50)
(-21.9392 7.86514 -50)
(-21.7263 7.91807 -50)
(-16.6538 9.32733 -50)
(-16.4442 9.3918 -50)
(-4.95577 13.723 -50)
(-4.7557 13.813 -50)
(-4.55583 13.9034 -50)
(-1.18911 15.5074 -50)
(-0.99295 15.6056 -50)
(-0.797004 15.7043 -50)
(6.59017 19.6076 -50)
(6.78737 19.7059 -50)
(6.98479 19.8038 -50)
(7.57831 20.0948 -50)
(7.77657 20.1909 -50)
(7.97503 20.2866 -50)
(8.17371 20.3819 -50)
(15.8675 23.6788 -50)
(16.0736 23.757 -50)
(16.2798 23.8346 -50)
(16.4861 23.9119 -50)
(16.6926 23.9887 -50)
(16.8993 24.065 -50)
(17.1062 24.1409 -50)
(17.3132 24.2164 -50)
(17.5204 24.2914 -50)
(17.7277 24.3659 -50)
(17.9352 24.44 -50)
(18.1429 24.5137 -50)
(18.3507 24.5869 -50)
(18.5587 24.6596 -50)
(18.7668 24.7319 -50)
(18.9751 24.8038 -50)
(20.8566 25.43 -50)
(21.0665 25.4973 -50)
(21.2764 25.5642 -50)
(21.4865 25.6306 -50)
(23.8068 26.3308 -50)
(24.0186 26.3917 -50)
(36.0575 29.0613 -50)
(37.8007 29.3226 -50)
(38.0189 29.3531 -50)
(40.2045 29.6324 -50)
(40.4234 29.6577 -50)
(39.9856 29.6066 -50)
(47.8909 30.235 -50)
(48.111 30.2437 -50)
(50.7542 30.31 -50)
(50.9745 30.3124 -50)
(51.1948 30.3143 -50)
(51.4152 30.3158 -50)
(-43.4199 4.95825 -50)
(-43.2006 4.96429 -50)
(-42.9813 4.9708 -50)
(-28.3751 6.49439 -50)
(-28.1592 6.53328 -50)
(-27.9434 6.57263 -50)
(-26.6503 6.81865 -50)
(-26.4351 6.8613 -50)
(-26.22 6.90442 -50)
(-23.6464 7.45842 -50)
(-23.4326 7.50763 -50)
(-22.7919 7.65805 -50)
(-22.5786 7.70912 -50)
(-19.3923 8.53097 -50)
(-19.1808 8.58947 -50)
(-11.0446 11.2278 -50)
(-10.8391 11.3046 -50)
(-10.6337 11.3817 -50)
(-6.96706 12.847 -50)
(-6.76507 12.9326 -50)
(-1.77887 15.2153 -50)
(-1.58207 15.3122 -50)
(-1.38549 15.4096 -50)
(-0.601274 15.8034 -50)
(-0.405761 15.9029 -50)
(-0.210465 16.0028 -50)
(0.374105 16.3052 -50)
(0.56852 16.4068 -50)
(0.762713 16.5089 -50)
(7.18242 19.9012 -50)
(7.38026 19.9982 -50)
(8.37259 20.4767 -50)
(8.57167 20.5711 -50)
(8.77096 20.6651 -50)
(8.97046 20.7587 -50)
(9.17015 20.8518 -50)
(12.5951 22.368 -50)
(12.7982 22.4533 -50)
(15.456 23.5212 -50)
(15.6617 23.6002 -50)
(19.6009 25.0166 -50)
(19.8098 25.0867 -50)
(20.0189 25.1562 -50)
(20.2281 25.2254 -50)
(20.4375 25.294 -50)
(20.647 25.3623 -50)
(24.6546 26.5717 -50)
(24.8669 26.6307 -50)
(25.0793 26.6893 -50)
(26.3563 27.0313 -50)
(26.5696 27.0866 -50)
(26.783 27.1415 -50)
(27.6377 27.3565 -50)
(27.8517 27.4091 -50)
(27.4238 27.3035 -50)
(28.0658 27.4613 -50)
(28.2799 27.5129 -50)
(28.4943 27.5641 -50)
(28.7087 27.6148 -50)
(28.9232 27.6651 -50)
(29.1378 27.7149 -50)
(29.7824 27.8615 -50)
(29.9975 27.9094 -50)
(30.2126 27.9569 -50)
(30.4279 28.0039 -50)
(34.5361 28.8079 -50)
(34.7532 28.8455 -50)
(36.7106 29.1628 -50)
(36.9285 29.1957 -50)
(37.1465 29.2282 -50)
(38.2372 29.3832 -50)
(38.4555 29.4128 -50)
(38.6739 29.4419 -50)
(38.8924 29.4705 -50)
(39.1109 29.4987 -50)
(39.3295 29.5264 -50)
(39.5482 29.5536 -50)
(39.7669 29.5803 -50)
(46.1303 30.1488 -50)
(46.3503 30.1612 -50)
(46.5703 30.1732 -50)
(48.3312 30.2518 -50)
(48.5514 30.2595 -50)
(48.7716 30.2667 -50)
(48.9919 30.2734 -50)
(49.2121 30.2797 -50)
(49.4324 30.2854 -50)
(49.6527 30.2907 -50)
(49.873 30.2955 -50)
(50.0933 30.2998 -50)
(50.3136 30.3037 -50)
(50.5339 30.3071 -50)
(52.7372 30.3145 -50)
(52.9575 30.3126 -50)
(53.1779 30.3103 -50)
(53.3982 30.3074 -50)
(56.0412 30.236 -50)
(56.2613 30.227 -50)
(56.4815 30.2175 -50)
(56.7016 30.2074 -50)
(56.9217 30.197 -50)
(57.1417 30.186 -50)
(57.3618 30.1745 -50)
(57.5818 30.1626 -50)
(57.8018 30.1502 -50)
(58.0218 30.1374 -50)
(58.2417 30.124 -50)
(58.4616 30.1102 -50)
(58.6815 30.0959 -50)
(58.9013 30.0811 -50)
(59.1211 30.0658 -50)
(-43.8585 4.94762 -50)
(-43.6392 4.9527 -50)
(-26.005 6.94801 -50)
(-25.7901 6.99207 -50)
(-25.5752 7.0366 -50)
(-25.3605 7.08159 -50)
(-25.1459 7.12706 -50)
(-24.9314 7.17299 -50)
(-24.717 7.21939 -50)
(-24.5026 7.26626 -50)
(-21.5135 7.97147 -50)
(-21.3008 8.02534 -50)
(-15.3978 9.72103 -50)
(-15.189 9.78825 -50)
(-14.9803 9.85592 -50)
(-14.7718 9.92404 -50)
(-14.5634 9.99263 -50)
(-14.3552 10.0617 -50)
(-14.1471 10.1312 -50)
(-13.9391 10.2011 -50)
(-13.7314 10.2715 -50)
(-13.5237 10.3424 -50)
(-13.3163 10.4137 -50)
(-13.1089 10.4854 -50)
(-7.57413 12.5928 -50)
(-7.37159 12.6771 -50)
(-7.16923 12.7618 -50)
(-6.56328 13.0187 -50)
(-6.36167 13.1052 -50)
(-6.16025 13.1921 -50)
(-2.37054 14.927 -50)
(-2.17311 15.0227 -50)
(-1.97589 15.1188 -50)
(-0.0153885 16.1032 -50)
(0.179469 16.204 -50)
(10.5736 21.4914 -50)
(10.7749 21.581 -50)
(10.9764 21.6702 -50)
(12.1893 22.1962 -50)
(12.3921 22.2824 -50)
(21.6967 25.6965 -50)
(21.9071 25.762 -50)
(22.1176 25.827 -50)
(22.3283 25.8916 -50)
(22.5391 25.9557 -50)
(22.7501 26.0194 -50)
(25.2918 26.7475 -50)
(25.5045 26.8052 -50)
(25.7172 26.8624 -50)
(25.9301 26.9191 -50)
(26.1432 26.9754 -50)
(26.9965 27.196 -50)
(27.2101 27.25 -50)
(29.3526 27.7642 -50)
(29.5674 27.8131 -50)
(41.0803 29.7308 -50)
(41.2994 29.7542 -50)
(44.811 30.064 -50)
(45.0308 30.0794 -50)
(53.6185 30.3041 -50)
(53.8388 30.3003 -50)
(54.0591 30.296 -50)
(54.2794 30.2913 -50)
(54.4997 30.286 -50)
(54.7199 30.2803 -50)
(55.3806 30.2603 -50)
(55.6008 30.2527 -50)
(55.821 30.2446 -50)
(-12.488 10.7034 -50)
(-12.2813 10.777 -50)
(-12.0748 10.851 -50)
(-10.4285 11.4593 -50)
(-10.2235 11.5374 -50)
(-10.0187 11.6159 -50)
(-5.95902 13.2795 -50)
(-5.75798 13.3673 -50)
(-5.55714 13.4556 -50)
(-5.35649 13.5443 -50)
(-5.15603 13.6334 -50)
(-2.76603 14.737 -50)
(-2.56818 14.8318 -50)
(11.178 21.759 -50)
(11.3799 21.8473 -50)
(13.0016 22.5381 -50)
(13.2052 22.6225 -50)
(13.4089 22.7064 -50)
(13.6128 22.7899 -50)
(13.8169 22.8729 -50)
(14.0212 22.9555 -50)
(19.1836 24.8752 -50)
(19.3922 24.9461 -50)
(22.9611 26.0826 -50)
(23.1724 26.1453 -50)
(32.3697 28.4059 -50)
(32.586 28.4482 -50)
(32.8023 28.49 -50)
(33.0187 28.5314 -50)
(33.6685 28.6527 -50)
(33.8853 28.6922 -50)
(34.9704 28.8827 -50)
(35.1876 28.9193 -50)
(35.405 28.9555 -50)
(37.3645 29.2601 -50)
(37.5825 29.2916 -50)
(40.6423 29.6825 -50)
(40.8613 29.7069 -50)
(41.5185 29.7771 -50)
(41.7377 29.7996 -50)
(41.957 29.8216 -50)
(42.1763 29.8431 -50)
(42.3956 29.8641 -50)
(43.0539 29.9243 -50)
(43.2734 29.9435 -50)
(43.4929 29.9621 -50)
(45.2506 30.0942 -50)
(45.4705 30.1086 -50)
(46.7903 30.1847 -50)
(47.0104 30.1957 -50)
(47.2305 30.2063 -50)
(51.6355 30.3168 -50)
(51.8559 30.3173 -50)
(52.0762 30.3173 -50)
(54.9402 30.2741 -50)
(55.1604 30.2675 -50)
(-12.9018 10.5576 -50)
(-12.6948 10.6303 -50)
(-11.8684 10.9255 -50)
(-11.6622 11.0004 -50)
(-8.18285 12.3426 -50)
(-7.97976 12.4255 -50)
(-7.77685 12.509 -50)
(14.2256 23.0376 -50)
(14.4302 23.1193 -50)
(30.6433 28.0504 -50)
(30.8587 28.0965 -50)
(31.0743 28.1421 -50)
(31.29 28.1872 -50)
(31.5057 28.2319 -50)
(31.7216 28.2761 -50)
(31.9375 28.3198 -50)
(32.1536 28.3631 -50)
(33.2352 28.5723 -50)
(33.4518 28.6128 -50)
(35.6224 28.9913 -50)
(35.8399 29.0265 -50)
(43.7125 29.9803 -50)
(43.9321 29.998 -50)
(44.1518 30.0152 -50)
(47.4506 30.2163 -50)
(47.6707 30.2259 -50)
(52.2965 30.3168 -50)
(52.5169 30.3159 -50)
(-9.81398 11.6949 -50)
(-9.60948 11.7743 -50)
(-9.40514 11.8541 -50)
(-9.20098 11.9344 -50)
(-8.997 12.0152 -50)
(-8.79319 12.0963 -50)
(-8.58957 12.178 -50)
(-8.38612 12.2601 -50)
(44.3715 30.032 -50)
(44.5912 30.0482 -50)
(34.1021 28.7313 -50)
(34.3191 28.7698 -50)
(59.7803 30.0172 50)
(59.5606 30.0339 50)
(59.3409 30.0501 50)
(59.1211 30.0658 50)
(58.9013 30.0811 50)
(58.6815 30.0959 50)
(58.4616 30.1102 50)
(58.2417 30.124 50)
(58.0218 30.1374 50)
(57.8018 30.1502 50)
(57.5818 30.1626 50)
(57.3618 30.1745 50)
(57.1417 30.186 50)
(56.9217 30.197 50)
(56.7016 30.2074 50)
(56.4815 30.2175 50)
(56.2613 30.227 50)
(56.0412 30.236 50)
(55.821 30.2446 50)
(55.6008 30.2527 50)
(55.3806 30.2603 50)
(55.1604 30.2675 50)
(54.9402 30.2741 50)
(54.7199 30.2803 50)
(54.4997 30.286 50)
(54.2794 30.2913 50)
(54.0591 30.296 50)
(53.8388 30.3003 50)
(53.6185 30.3041 50)
(53.3982 30.3074 50)
(53.1779 30.3103 50)
(52.9575 30.3126 50)
(52.7372 30.3145 50)
(52.5169 30.3159 50)
(52.2965 30.3168 50)
(52.0762 30.3173 50)
(51.8559 30.3173 50)
(51.6355 30.3168 50)
(51.4152 30.3158 50)
(51.1948 30.3143 50)
(50.9745 30.3124 50)
(50.7542 30.31 50)
(50.5339 30.3071 50)
(50.3136 30.3037 50)
(50.0933 30.2998 50)
(49.873 30.2955 50)
(49.6527 30.2907 50)
(49.4324 30.2854 50)
(49.2121 30.2797 50)
(48.9919 30.2734 50)
(48.7716 30.2667 50)
(48.5514 30.2595 50)
(48.3312 30.2518 50)
(48.111 30.2437 50)
(47.8909 30.235 50)
(47.6707 30.2259 50)
(47.4506 30.2163 50)
(47.2305 30.2063 50)
(47.0104 30.1957 50)
(46.7903 30.1847 50)
(46.5703 30.1732 50)
(46.3503 30.1612 50)
(46.1303 30.1488 50)
(45.9103 30.1358 50)
(45.6904 30.1224 50)
(45.4705 30.1086 50)
(45.2506 30.0942 50)
(45.0308 30.0794 50)
(44.811 30.064 50)
(44.5912 30.0482 50)
(44.3715 30.032 50)
(44.1518 30.0152 50)
(43.9321 29.998 50)
(43.7125 29.9803 50)
(43.4929 29.9621 50)
(43.2734 29.9435 50)
(43.0539 29.9243 50)
(42.8344 29.9047 50)
(42.615 29.8847 50)
(42.3956 29.8641 50)
(42.1763 29.8431 50)
(41.957 29.8216 50)
(41.7377 29.7996 50)
(41.5185 29.7771 50)
(41.2994 29.7542 50)
(41.0803 29.7308 50)
(40.8613 29.7069 50)
(40.6423 29.6825 50)
(40.4234 29.6577 50)
(40.2045 29.6324 50)
(39.9856 29.6066 50)
(39.7669 29.5803 50)
(39.5482 29.5536 50)
(39.3295 29.5264 50)
(39.1109 29.4987 50)
(38.8924 29.4705 50)
(38.6739 29.4419 50)
(38.4555 29.4128 50)
(38.2372 29.3832 50)
(38.0189 29.3531 50)
(37.8007 29.3226 50)
(37.5825 29.2916 50)
(37.3645 29.2601 50)
(37.1465 29.2282 50)
(36.9285 29.1957 50)
(36.7106 29.1628 50)
(36.4928 29.1295 50)
(36.2751 29.0956 50)
(36.0575 29.0613 50)
(35.8399 29.0265 50)
(35.6224 28.9913 50)
(35.405 28.9555 50)
(35.1876 28.9193 50)
(34.9704 28.8827 50)
(34.7532 28.8455 50)
(34.5361 28.8079 50)
(34.3191 28.7698 50)
(34.1021 28.7313 50)
(33.8853 28.6922 50)
(33.6685 28.6527 50)
(33.4518 28.6128 50)
(33.2352 28.5723 50)
(33.0187 28.5314 50)
(32.8023 28.49 50)
(32.586 28.4482 50)
(32.3697 28.4059 50)
(32.1536 28.3631 50)
(31.9375 28.3198 50)
(31.7216 28.2761 50)
(31.5057 28.2319 50)
(31.29 28.1872 50)
(31.0743 28.1421 50)
(30.8587 28.0965 50)
(30.6433 28.0504 50)
(30.4279 28.0039 50)
(30.2126 27.9569 50)
(29.9975 27.9094 50)
(29.7824 27.8615 50)
(29.5674 27.8131 50)
(29.3526 27.7642 50)
(29.1378 27.7149 50)
(28.9232 27.6651 50)
(28.7087 27.6148 50)
(28.4943 27.5641 50)
(28.2799 27.5129 50)
(28.0658 27.4613 50)
(27.8517 27.4091 50)
(27.6377 27.3565 50)
(27.4238 27.3035 50)
(27.2101 27.25 50)
(26.9965 27.196 50)
(26.783 27.1415 50)
(26.5696 27.0866 50)
(26.3563 27.0313 50)
(26.1432 26.9754 50)
(25.9301 26.9191 50)
(25.7172 26.8624 50)
(25.5045 26.8052 50)
(25.2918 26.7475 50)
(25.0793 26.6893 50)
(24.8669 26.6307 50)
(24.6546 26.5717 50)
(24.4425 26.5121 50)
(24.2304 26.4522 50)
(24.0186 26.3917 50)
(23.8068 26.3308 50)
(23.5952 26.2694 50)
(23.3837 26.2076 50)
(23.1724 26.1453 50)
(22.9611 26.0826 50)
(22.7501 26.0194 50)
(22.5391 25.9557 50)
(22.3283 25.8916 50)
(22.1176 25.827 50)
(21.9071 25.762 50)
(21.6967 25.6965 50)
(21.4865 25.6306 50)
(21.2764 25.5642 50)
(21.0665 25.4973 50)
(20.8566 25.43 50)
(20.647 25.3623 50)
(20.4375 25.294 50)
(20.2281 25.2254 50)
(20.0189 25.1562 50)
(19.8098 25.0867 50)
(19.6009 25.0166 50)
(19.3922 24.9461 50)
(19.1836 24.8752 50)
(18.9751 24.8038 50)
(18.7668 24.7319 50)
(18.5587 24.6596 50)
(18.3507 24.5869 50)
(18.1429 24.5137 50)
(17.9352 24.44 50)
(17.7277 24.3659 50)
(17.5204 24.2914 50)
(17.3132 24.2164 50)
(17.1062 24.1409 50)
(16.8993 24.065 50)
(16.6926 23.9887 50)
(16.4861 23.9119 50)
(16.2798 23.8346 50)
(16.0736 23.757 50)
(15.8675 23.6788 50)
(15.6617 23.6002 50)
(15.456 23.5212 50)
(15.2505 23.4417 50)
(15.0452 23.3618 50)
(14.84 23.2814 50)
(14.6351 23.2006 50)
(14.4302 23.1193 50)
(14.2256 23.0376 50)
(14.0212 22.9555 50)
(13.8169 22.8729 50)
(13.6128 22.7899 50)
(13.4089 22.7064 50)
(13.2052 22.6225 50)
(13.0016 22.5381 50)
(12.7982 22.4533 50)
(12.5951 22.368 50)
(12.3921 22.2824 50)
(12.1893 22.1962 50)
(11.9866 22.1097 50)
(11.7842 22.0227 50)
(11.582 21.9352 50)
(11.3799 21.8473 50)
(11.178 21.759 50)
(10.9764 21.6702 50)
(10.7749 21.581 50)
(10.5736 21.4914 50)
(10.3725 21.4013 50)
(10.1716 21.3108 50)
(9.97094 21.2199 50)
(9.77045 21.1285 50)
(9.57015 21.0367 50)
(9.37005 20.9445 50)
(9.17015 20.8518 50)
(8.97046 20.7587 50)
(8.77096 20.6651 50)
(8.57167 20.5711 50)
(8.37259 20.4767 50)
(8.17371 20.3819 50)
(7.97503 20.2866 50)
(7.77657 20.1909 50)
(7.57831 20.0948 50)
(7.38026 19.9982 50)
(7.18242 19.9012 50)
(6.98479 19.8038 50)
(6.78737 19.7059 50)
(6.59017 19.6076 50)
(6.39318 19.5089 50)
(6.1964 19.4098 50)
(5.99984 19.3102 50)
(5.8035 19.2102 50)
(5.60737 19.1098 50)
(5.41147 19.009 50)
(5.21578 18.9077 50)
(5.02031 18.806 50)
(4.82506 18.7039 50)
(4.63004 18.6014 50)
(4.43524 18.4984 50)
(4.24066 18.395 50)
(4.0463 18.2912 50)
(3.85218 18.187 50)
(3.65828 18.0823 50)
(3.4646 17.9773 50)
(3.27116 17.8718 50)
(3.07794 17.7659 50)
(2.88496 17.6595 50)
(2.6922 17.5528 50)
(2.50029 17.4465 50)
(2.30814 17.3406 50)
(2.11576 17.2352 50)
(1.92315 17.1302 50)
(1.73031 17.0256 50)
(1.53724 16.9214 50)
(1.34395 16.8176 50)
(1.15043 16.7143 50)
(0.956682 16.6114 50)
(0.762713 16.5089 50)
(0.56852 16.4068 50)
(0.374105 16.3052 50)
(0.179469 16.204 50)
(-0.0153885 16.1032 50)
(-0.210465 16.0028 50)
(-0.405761 15.9029 50)
(-0.601274 15.8034 50)
(-0.797004 15.7043 50)
(-0.99295 15.6056 50)
(-1.18911 15.5074 50)
(-1.38549 15.4096 50)
(-1.58207 15.3122 50)
(-1.77887 15.2153 50)
(-1.97589 15.1188 50)
(-2.17311 15.0227 50)
(-2.37054 14.927 50)
(-2.56818 14.8318 50)
(-2.76603 14.737 50)
(-2.96408 14.6427 50)
(-3.16234 14.5487 50)
(-3.3608 14.4553 50)
(-3.55947 14.3622 50)
(-3.75834 14.2696 50)
(-3.95741 14.1774 50)
(-4.15668 14.0856 50)
(-4.35616 13.9943 50)
(-4.55583 13.9034 50)
(-4.7557 13.813 50)
(-4.95577 13.723 50)
(-5.15603 13.6334 50)
(-5.35649 13.5443 50)
(-5.55714 13.4556 50)
(-5.75798 13.3673 50)
(-5.95902 13.2795 50)
(-6.16025 13.1921 50)
(-6.36167 13.1052 50)
(-6.56328 13.0187 50)
(-6.76507 12.9326 50)
(-6.96706 12.847 50)
(-7.16923 12.7618 50)
(-7.37159 12.6771 50)
(-7.57413 12.5928 50)
(-7.77685 12.509 50)
(-7.97976 12.4255 50)
(-8.18285 12.3426 50)
(-8.38612 12.2601 50)
(-8.58957 12.178 50)
(-8.79319 12.0963 50)
(-8.997 12.0152 50)
(-9.20098 11.9344 50)
(-9.40514 11.8541 50)
(-9.60948 11.7743 50)
(-9.81398 11.6949 50)
(-10.0187 11.6159 50)
(-10.2235 11.5374 50)
(-10.4285 11.4593 50)
(-10.6337 11.3817 50)
(-10.8391 11.3046 50)
(-11.0446 11.2278 50)
(-11.2503 11.1516 50)
(-11.4562 11.0758 50)
(-11.6622 11.0004 50)
(-11.8684 10.9255 50)
(-12.0748 10.851 50)
(-12.2813 10.777 50)
(-12.488 10.7034 50)
(-12.6948 10.6303 50)
(-12.9018 10.5576 50)
(-13.1089 10.4854 50)
(-13.3163 10.4137 50)
(-13.5237 10.3424 50)
(-13.7314 10.2715 50)
(-13.9391 10.2011 50)
(-14.1471 10.1312 50)
(-14.3552 10.0617 50)
(-14.5634 9.99263 50)
(-14.7718 9.92404 50)
(-14.9803 9.85592 50)
(-15.189 9.78825 50)
(-15.3978 9.72103 50)
(-15.6068 9.65427 50)
(-15.8159 9.58797 50)
(-16.0252 9.52212 50)
(-16.2346 9.45674 50)
(-16.4442 9.3918 50)
(-16.6538 9.32733 50)
(-16.8637 9.26332 50)
(-17.0737 9.19976 50)
(-17.2838 9.13666 50)
(-17.494 9.07402 50)
(-17.7044 9.01184 50)
(-17.9149 8.95012 50)
(-18.1256 8.88886 50)
(-18.3364 8.82806 50)
(-18.5473 8.76772 50)
(-18.7583 8.70784 50)
(-18.9695 8.64843 50)
(-19.1808 8.58947 50)
(-19.3923 8.53097 50)
(-19.6038 8.47294 50)
(-19.8155 8.41537 50)
(-20.0273 8.35826 50)
(-20.2393 8.30162 50)
(-20.4513 8.24543 50)
(-20.6635 8.18971 50)
(-20.8758 8.13446 50)
(-21.0883 8.07966 50)
(-21.3008 8.02534 50)
(-21.5135 7.97147 50)
(-21.7263 7.91807 50)
(-21.9392 7.86514 50)
(-22.1522 7.81267 50)
(-22.3653 7.76066 50)
(-22.5786 7.70912 50)
(-22.7919 7.65805 50)
(-23.0054 7.60744 50)
(-23.2189 7.5573 50)
(-23.4326 7.50763 50)
(-23.6464 7.45842 50)
(-23.8603 7.40968 50)
(-24.0743 7.36141 50)
(-24.2884 7.3136 50)
(-24.5026 7.26626 50)
(-24.717 7.21939 50)
(-24.9314 7.17299 50)
(-25.1459 7.12706 50)
(-25.3605 7.08159 50)
(-25.5752 7.0366 50)
(-25.7901 6.99207 50)
(-26.005 6.94801 50)
(-26.22 6.90442 50)
(-26.4351 6.8613 50)
(-26.6503 6.81865 50)
(-26.8656 6.77647 50)
(-27.0809 6.73476 50)
(-27.2964 6.69352 50)
(-27.512 6.65276 50)
(-27.7276 6.61246 50)
(-27.9434 6.57263 50)
(-28.1592 6.53328 50)
(-28.3751 6.49439 50)
(-28.5911 6.45598 50)
(-28.8071 6.41804 50)
(-29.0233 6.38057 50)
(-29.2395 6.34358 50)
(-29.4559 6.30705 50)
(-29.6723 6.271 50)
(-29.8887 6.23542 50)
(-30.1053 6.20032 50)
(-30.3219 6.16568 50)
(-30.5386 6.13153 50)
(-30.7554 6.09784 50)
(-30.9723 6.06463 50)
(-31.1892 6.03189 50)
(-31.4062 5.99962 50)
(-31.6233 5.96783 50)
(-31.8404 5.93651 50)
(-32.0576 5.90567 50)
(-32.2749 5.8753 50)
(-32.4922 5.8454 50)
(-32.7096 5.81599 50)
(-32.9271 5.78704 50)
(-33.1446 5.75857 50)
(-33.3622 5.73058 50)
(-33.5798 5.70306 50)
(-33.7975 5.67601 50)
(-34.0153 5.64944 50)
(-34.2331 5.62335 50)
(-34.451 5.59773 50)
(-34.6689 5.57259 50)
(-34.8869 5.54792 50)
(-35.105 5.52374 50)
(-35.3231 5.50002 50)
(-35.5412 5.47679 50)
(-35.7594 5.45402 50)
(-35.9777 5.43174 50)
(-36.196 5.40993 50)
(-36.4143 5.3886 50)
(-36.6327 5.36775 50)
(-36.8511 5.34737 50)
(-37.0696 5.32747 50)
(-37.2881 5.30805 50)
(-37.5067 5.2891 50)
(-37.7253 5.27064 50)
(-37.9439 5.25265 50)
(-38.1626 5.23513 50)
(-38.3813 5.2181 50)
(-38.6001 5.20154 50)
(-38.8189 5.18546 50)
(-39.0377 5.16986 50)
(-39.2565 5.15473 50)
(-39.4754 5.14009 50)
(-39.6944 5.12592 50)
(-39.9133 5.11223 50)
(-40.1323 5.09902 50)
(-40.3513 5.08628 50)
(-40.5704 5.07403 50)
(-40.7894 5.06225 50)
(-41.0085 5.05095 50)
(-41.2276 5.04013 50)
(-41.4468 5.02979 50)
(-41.6659 5.01993 50)
(-41.8851 5.01054 50)
(-42.1043 5.00164 50)
(-42.3235 4.99321 50)
(-42.5428 4.98526 50)
(-42.762 4.97779 50)
(-42.9813 4.9708 50)
(-43.2006 4.96429 50)
(-43.4199 4.95825 50)
(-43.6392 4.9527 50)
(-43.8585 4.94762 50)
(-44.0778 4.94303 50)
(-44.2972 4.93891 50)
(-44.5165 4.93527 50)
(-44.7359 4.93211 50)
(-44.9552 4.92943 50)
(-45.1746 4.92723 50)
(-45.394 4.92551 50)
(-45.6134 4.92427 50)
(-45.8328 4.9235 50)
(-46.0521 4.92322 50)
(-46.2715 4.92341 50)
(-46.4909 4.92408 50)
(-46.7103 4.92524 50)
(-46.9296 4.92687 50)
(-47.149 4.92898 50)
(-47.3684 4.93157 50)
(-47.5877 4.93464 50)
(-47.8071 4.93818 50)
(-48.0264 4.94221 50)
(-48.2458 4.94672 50)
(-48.4651 4.9517 50)
(-48.6844 4.95716 50)
(-48.9037 4.96311 50)
(-49.123 4.96953 50)
(-49.3423 4.97643 50)
(-49.5615 4.98381 50)
(-49.7808 4.99166 50)
)

// edges

1050
(
(0 1)
(1 8)
(9 10)
(10 11)
(12 13)
(14 15)
(16 12)
(15 16)
(8 17)
(17 18)
(18 19)
(20 21)
(21 22)
(23 24)
(25 26)
(26 27)
(27 28)
(29 30)
(30 31)
(31 9)
(11 32)
(32 33)
(33 34)
(19 35)
(35 36)
(36 37)
(38 39)
(39 40)
(40 41)
(41 42)
(42 43)
(24 44)
(44 45)
(45 46)
(46 47)
(47 48)
(48 49)
(28 50)
(50 51)
(51 52)
(52 53)
(53 54)
(54 55)
(55 56)
(56 57)
(57 58)
(59 60)
(61 62)
(63 64)
(64 65)
(65 66)
(66 67)
(67 68)
(68 14)
(69 70)
(22 71)
(71 72)
(72 73)
(74 75)
(75 76)
(76 77)
(78 79)
(43 80)
(80 81)
(81 82)
(82 83)
(83 84)
(84 85)
(85 86)
(86 87)
(87 88)
(89 90)
(91 92)
(62 93)
(93 94)
(94 95)
(95 96)
(96 97)
(97 98)
(99 100)
(100 101)
(101 102)
(102 103)
(103 104)
(104 105)
(105 106)
(107 108)
(108 109)
(109 63)
(13 110)
(110 111)
(111 112)
(112 29)
(113 69)
(70 114)
(114 115)
(115 116)
(117 118)
(119 120)
(120 121)
(121 122)
(123 124)
(125 126)
(127 128)
(37 129)
(129 130)
(130 131)
(131 132)
(132 133)
(133 134)
(135 136)
(136 137)
(137 20)
(73 138)
(138 139)
(139 140)
(141 142)
(142 143)
(143 74)
(79 144)
(144 145)
(145 38)
(88 146)
(146 147)
(147 148)
(148 149)
(149 150)
(150 89)
(90 151)
(151 152)
(152 23)
(49 153)
(153 154)
(154 155)
(155 156)
(156 157)
(157 25)
(158 159)
(160 161)
(161 162)
(162 163)
(163 164)
(164 165)
(165 59)
(166 167)
(167 168)
(168 61)
(169 170)
(170 171)
(171 172)
(173 174)
(34 175)
(175 176)
(176 177)
(178 117)
(179 180)
(181 182)
(183 184)
(184 185)
(3 2)
(185 3)
(134 186)
(186 187)
(187 135)
(77 188)
(188 189)
(189 190)
(190 191)
(191 192)
(192 78)
(92 193)
(193 194)
(194 195)
(196 158)
(197 198)
(199 200)
(200 201)
(201 202)
(98 203)
(203 204)
(204 169)
(205 206)
(206 207)
(207 99)
(208 209)
(209 210)
(177 211)
(211 212)
(212 213)
(214 215)
(215 216)
(216 217)
(218 219)
(219 220)
(220 221)
(221 222)
(222 223)
(223 224)
(224 225)
(225 226)
(226 227)
(227 228)
(228 229)
(229 230)
(230 231)
(231 232)
(232 233)
(234 235)
(235 236)
(236 237)
(180 238)
(238 239)
(239 123)
(240 125)
(241 242)
(243 244)
(245 243)
(246 247)
(248 249)
(249 250)
(250 251)
(252 253)
(253 254)
(254 141)
(58 255)
(255 256)
(2 0)
(256 257)
(257 91)
(195 258)
(258 259)
(259 260)
(159 261)
(261 262)
(262 197)
(198 263)
(263 264)
(264 199)
(60 265)
(265 266)
(266 166)
(174 267)
(267 268)
(268 269)
(270 271)
(272 273)
(273 274)
(274 208)
(210 275)
(275 276)
(276 277)
(278 279)
(279 280)
(280 107)
(213 281)
(281 282)
(282 214)
(217 283)
(283 284)
(284 285)
(285 286)
(286 287)
(287 113)
(288 289)
(122 290)
(290 291)
(291 218)
(292 293)
(293 294)
(294 295)
(295 296)
(296 297)
(297 234)
(124 298)
(298 299)
(299 300)
(301 302)
(302 303)
(304 305)
(306 304)
(305 307)
(307 308)
(308 309)
(309 310)
(310 311)
(311 312)
(313 314)
(314 315)
(315 316)
(317 318)
(126 319)
(319 320)
(320 321)
(242 322)
(322 323)
(323 324)
(324 325)
(325 326)
(326 327)
(327 328)
(328 329)
(329 245)
(128 330)
(330 331)
(331 332)
(247 333)
(333 334)
(334 335)
(335 336)
(336 337)
(337 338)
(338 339)
(339 340)
(340 341)
(341 342)
(342 343)
(343 248)
(344 345)
(345 346)
(346 347)
(348 349)
(349 350)
(350 351)
(351 352)
(352 353)
(353 354)
(354 355)
(355 356)
(356 357)
(357 358)
(358 359)
(359 360)
(360 361)
(361 362)
(362 183)
(140 363)
(363 364)
(364 252)
(260 365)
(365 366)
(366 367)
(367 368)
(368 369)
(369 370)
(370 371)
(371 372)
(372 196)
(202 373)
(373 374)
(374 160)
(172 375)
(375 376)
(376 377)
(377 378)
(378 379)
(379 380)
(380 381)
(381 382)
(382 383)
(383 384)
(384 385)
(385 386)
(387 388)
(388 389)
(389 270)
(271 390)
(390 391)
(391 392)
(393 394)
(394 395)
(395 272)
(277 396)
(396 397)
(397 278)
(116 398)
(398 399)
(399 400)
(118 401)
(401 402)
(402 288)
(237 403)
(403 404)
(404 405)
(405 406)
(406 407)
(407 408)
(300 409)
(409 410)
(410 411)
(411 412)
(412 413)
(413 301)
(303 414)
(414 415)
(415 306)
(312 416)
(416 417)
(417 313)
(418 419)
(420 421)
(347 422)
(422 423)
(423 424)
(424 425)
(425 426)
(426 427)
(428 429)
(429 430)
(430 348)
(431 432)
(432 433)
(269 434)
(434 435)
(435 436)
(392 437)
(437 438)
(438 439)
(439 440)
(440 441)
(441 205)
(106 442)
(442 443)
(443 393)
(400 444)
(444 445)
(445 178)
(289 446)
(446 447)
(447 448)
(448 449)
(449 450)
(450 451)
(233 452)
(452 453)
(453 292)
(408 454)
(454 455)
(455 179)
(456 457)
(457 458)
(458 459)
(460 461)
(318 462)
(462 463)
(463 464)
(321 465)
(465 466)
(466 241)
(244 467)
(467 468)
(468 418)
(419 469)
(469 470)
(470 471)
(471 472)
(472 473)
(473 181)
(182 474)
(474 475)
(475 476)
(421 477)
(477 478)
(478 127)
(332 479)
(479 480)
(480 481)
(251 482)
(482 483)
(483 484)
(427 485)
(485 486)
(486 428)
(386 487)
(487 488)
(488 431)
(433 489)
(489 490)
(490 173)
(491 492)
(492 493)
(493 387)
(451 494)
(494 495)
(495 119)
(316 496)
(496 497)
(497 498)
(498 499)
(499 500)
(500 501)
(501 502)
(502 503)
(503 456)
(459 504)
(504 505)
(505 460)
(464 506)
(506 507)
(507 240)
(476 508)
(508 509)
(509 510)
(481 511)
(511 512)
(512 246)
(484 513)
(513 514)
(514 344)
(436 515)
(515 516)
(516 517)
(517 518)
(518 519)
(519 520)
(520 521)
(521 522)
(522 491)
(510 523)
(523 524)
(524 420)
(461 525)
(525 526)
(526 317)
(2 4)
(4 5)
(5 0)
(5 6)
(6 1)
(3 7)
(7 4)
(527 7)
(528 527)
(529 528)
(530 529)
(531 530)
(532 531)
(533 532)
(534 533)
(535 534)
(536 535)
(537 536)
(538 537)
(539 538)
(540 539)
(541 540)
(542 541)
(543 542)
(544 543)
(545 544)
(546 545)
(547 546)
(548 547)
(549 548)
(550 549)
(551 550)
(552 551)
(553 552)
(554 553)
(555 554)
(556 555)
(557 556)
(558 557)
(559 558)
(560 559)
(561 560)
(562 561)
(563 562)
(564 563)
(565 564)
(566 565)
(567 566)
(568 567)
(569 568)
(570 569)
(571 570)
(572 571)
(573 572)
(574 573)
(575 574)
(576 575)
(577 576)
(578 577)
(579 578)
(580 579)
(581 580)
(582 581)
(583 582)
(584 583)
(585 584)
(586 585)
(587 586)
(588 587)
(589 588)
(590 589)
(591 590)
(592 591)
(593 592)
(594 593)
(595 594)
(596 595)
(597 596)
(598 597)
(599 598)
(600 599)
(601 600)
(602 601)
(603 602)
(604 603)
(605 604)
(606 605)
(607 606)
(608 607)
(609 608)
(610 609)
(611 610)
(612 611)
(613 612)
(614 613)
(615 614)
(616 615)
(617 616)
(618 617)
(619 618)
(620 619)
(621 620)
(622 621)
(623 622)
(624 623)
(625 624)
(626 625)
(627 626)
(628 627)
(629 628)
(630 629)
(631 630)
(632 631)
(633 632)
(634 633)
(635 634)
(636 635)
(637 636)
(638 637)
(639 638)
(640 639)
(641 640)
(642 641)
(643 642)
(644 643)
(645 644)
(646 645)
(647 646)
(648 647)
(649 648)
(650 649)
(651 650)
(652 651)
(653 652)
(654 653)
(655 654)
(656 655)
(657 656)
(658 657)
(659 658)
(660 659)
(661 660)
(662 661)
(663 662)
(664 663)
(665 664)
(666 665)
(667 666)
(668 667)
(669 668)
(670 669)
(671 670)
(672 671)
(673 672)
(674 673)
(675 674)
(676 675)
(677 676)