/*--------------------------------*- C++ -*----------------------------------*\
  =========                 |
  \\      /  F ield         | OpenFOAM: The Open Source CFD Toolbox
   \\    /   O peration     | Website:  https://openfoam.org
    \\  /    A nd           | Version:  dev
     \\/     M anipulation  |
\*---------------------------------------------------------------------------*/
FoamFile
{
    version     2.0;
    format      ascii;
    class       extendedFeatureEdgeMesh;
    location    "constant/extendedFeatureEdgeMesh";
    object      slopedIncline2.extendedFeatureEdgeMesh;
}
// * * * * * * * * * * * * * * * * * * * * * * * * * * * * * * * * * * * * * //

// points

960
(
(109 30 -50)
(109 -5 -50)
(-50 -5 -50)
(-50 5 -50)
(109 -5 50)
(109 30 50)
(-50 -5 50)
(-50 5 50)
(60 30 -50)
(-38.8635 5.00597 -50)
(-38.6363 5.00859 -50)
(5.58272 15.0652 -50)
(5.78878 15.1612 -50)
(5.99464 15.2575 -50)
(7.83813 16.1442 -50)
(8.04192 16.2448 -50)
(-19.6649 6.92719 -50)
(-19.4417 6.97012 -50)
(-14.5559 8.03285 -50)
(-14.335 8.0865 -50)
(6.20029 15.3543 -50)
(6.40574 15.4516 -50)
(6.61099 15.5492 -50)
(6.81603 15.6473 -50)
(7.02087 15.7458 -50)
(7.2255 15.8448 -50)
(8.2455 16.3459 -50)
(8.44886 16.4475 -50)
(8.65202 16.5494 -50)
(-40 5 -50)
(-39.7727 5.00024 -50)
(-39.5454 5.00095 -50)
(-22.3501 6.44861 -50)
(-22.1259 6.4859 -50)
(-21.9017 6.52367 -50)
(-21.6777 6.56191 -50)
(-19.2186 7.01352 -50)
(-18.9956 7.05739 -50)
(-18.7726 7.10173 -50)
(-5.81886 10.5383 -50)
(-5.60327 10.6103 -50)
(-5.38783 10.6827 -50)
(-5.17254 10.7556 -50)
(-4.95741 10.829 -50)
(-4.74243 10.9028 -50)
(-4.52761 10.9771 -50)
(3.30298 14.0387 -50)
(3.51121 14.1298 -50)
(4.13472 14.4059 -50)
(4.34216 14.4988 -50)
(-39.3181 5.00215 -50)
(-39.0908 5.00382 -50)
(-31.8251 5.30912 -50)
(-31.5985 5.32653 -50)
(-31.3719 5.3444 -50)
(-31.1454 5.36276 -50)
(-30.9188 5.38159 -50)
(-30.6924 5.4009 -50)
(-30.4659 5.42068 -50)
(-30.2395 5.44093 -50)
(-30.0132 5.46167 -50)
(-29.7869 5.48287 -50)
(-28.4301 5.62009 -50)
(-28.2041 5.64462 -50)
(-27.9782 5.66963 -50)
(-27.7523 5.69511 -50)
(-21.4537 6.60061 -50)
(-21.2298 6.63979 -50)
(-21.006 6.67944 -50)
(-20.7823 6.71956 -50)
(-20.5586 6.76014 -50)
(-20.3351 6.8012 -50)
(-20.1116 6.84273 -50)
(-19.8882 6.88472 -50)
(-15.2192 7.87465 -50)
(-14.998 7.92692 -50)
(-14.7769 7.97965 -50)
(-14.1143 8.14063 -50)
(-13.8936 8.19521 -50)
(-13.6731 8.25026 -50)
(-13.4527 8.30577 -50)
(-13.2324 8.36175 -50)
(-13.0122 8.41818 -50)
(2.25903 13.5895 -50)
(2.4682 13.6785 -50)
(2.67718 13.7679 -50)
(4.54942 14.5921 -50)
(4.75647 14.6859 -50)
(4.96333 14.7801 -50)
(5.16999 14.8747 -50)
(5.37645 14.9698 -50)
(7.42992 15.9441 -50)
(7.63413 16.0439 -50)
(9.86639 17.17 -50)
(10.068 17.2749 -50)
(11.2731 17.9133 -50)
(11.4732 18.0212 -50)
(11.6731 18.1295 -50)
(-37.2727 5.03436 -50)
(-37.0455 5.04033 -50)
(-36.8183 5.04677 -50)
(-36.5911 5.05369 -50)
(-35.9096 5.07731 -50)
(-35.6825 5.08614 -50)
(-35.4554 5.09544 -50)
(-35.2283 5.10522 -50)
(-35.0013 5.11548 -50)
(-34.7742 5.12621 -50)
(-34.5472 5.13742 -50)
(-34.3202 5.14911 -50)
(-34.0932 5.16128 -50)
(-33.8663 5.17392 -50)
(-33.6394 5.18704 -50)
(-33.4125 5.20063 -50)
(-33.1856 5.2147 -50)
(-32.9588 5.22925 -50)
(-32.732 5.24427 -50)
(-32.5052 5.25977 -50)
(-29.5606 5.50456 -50)
(-29.3344 5.52671 -50)
(-29.1083 5.54935 -50)
(-18.5498 7.14654 -50)
(-18.3271 7.19181 -50)
(-18.1044 7.23755 -50)
(-12.7921 8.47508 -50)
(-12.5722 8.53244 -50)
(-12.3524 8.59027 -50)
(-12.1327 8.64855 -50)
(-11.9131 8.7073 -50)
(-11.6937 8.7665 -50)
(-11.0361 8.94688 -50)
(-10.8171 9.00793 -50)
(-10.5983 9.06944 -50)
(-10.3796 9.1314 -50)
(-10.1611 9.19383 -50)
(-8.85253 9.578 -50)
(-8.63491 9.64364 -50)
(2.88597 13.8577 -50)
(3.09457 13.948 -50)
(3.71924 14.2214 -50)
(3.92707 14.3134 -50)
(-36.3639 5.06108 -50)
(-36.1368 5.06896 -50)
(-32.2785 5.27574 -50)
(-32.0518 5.29219 -50)
(-16.7706 7.52181 -50)
(-16.5487 7.57082 -50)
(-15.8834 7.72064 -50)
(-15.6619 7.77152 -50)
(-15.4405 7.82285 -50)
(-11.4743 8.82617 -50)
(-11.2551 8.8863 -50)
(-9.94264 9.25671 -50)
(-9.72435 9.32006 -50)
(-9.50619 9.38386 -50)
(-4.31294 11.0518 -50)
(-4.09843 11.1269 -50)
(-3.88408 11.2025 -50)
(-3.66989 11.2786 -50)
(-3.45585 11.3551 -50)
(-3.24198 11.4321 -50)
(1.42051 13.2381 -50)
(1.63042 13.3253 -50)
(8.85495 16.6518 -50)
(9.05768 16.7546 -50)
(9.26018 16.8578 -50)
(9.46247 16.9614 -50)
(9.66454 17.0655 -50)
(10.2694 17.3803 -50)
(10.4706 17.486 -50)
(10.6716 17.5922 -50)
(53.6577 29.9703 -50)
(53.869 29.9783 -50)
(55.1371 30.0159 -50)
(55.3485 30.0204 -50)
(12.642 18.6602 -50)
(12.8277 18.7613 -50)
(12.4565 18.5588 -50)
(-38.409 5.01169 -50)
(-38.1817 5.01527 -50)
(-37.9545 5.01933 -50)
(-28.8821 5.57245 -50)
(-28.6561 5.59604 -50)
(-27.5265 5.72107 -50)
(-27.3007 5.74749 -50)
(-27.075 5.7744 -50)
(-26.8494 5.80177 -50)
(-26.6238 5.82962 -50)
(-26.3983 5.85795 -50)
(-26.1728 5.88674 -50)
(-25.9474 5.91601 -50)
(-25.7221 5.94576 -50)
(-25.4968 5.97597 -50)
(-25.2716 6.00666 -50)
(-25.0464 6.03783 -50)
(-24.8214 6.06946 -50)
(-24.5963 6.10157 -50)
(-24.3714 6.13415 -50)
(-24.1465 6.1672 -50)
(-17.8819 7.28376 -50)
(-17.6594 7.33044 -50)
(-17.4371 7.37758 -50)
(-16.3268 7.6203 -50)
(-16.1051 7.67024 -50)
(-9.28817 9.44811 -50)
(-9.07028 9.51283 -50)
(-6.68272 10.2548 -50)
(-6.46653 10.325 -50)
(-6.25049 10.3957 -50)
(-6.0346 10.4668 -50)
(-1.96219 11.9032 -50)
(-1.74948 11.9833 -50)
(-1.53693 12.0639 -50)
(-1.32455 12.1449 -50)
(1.84014 13.4129 -50)
(2.04968 13.501 -50)
(10.8723 17.6988 -50)
(11.0729 17.8059 -50)
(13.0137 18.8619 -50)
(13.1999 18.9621 -50)
(13.3863 19.0619 -50)
(13.573 19.1613 -50)
(-37.7272 5.02386 -50)
(-37.5 5.02887 -50)
(-23.2477 6.30413 -50)
(-23.0232 6.33954 -50)
(-23.4723 6.26919 -50)
(-22.7987 6.37543 -50)
(-22.5744 6.41178 -50)
(-17.2148 7.42519 -50)
(-16.9927 7.47327 -50)
(-8.41744 9.70972 -50)
(-8.2001 9.77627 -50)
(-7.9829 9.84327 -50)
(-7.76585 9.91072 -50)
(-7.54894 9.97864 -50)
(-7.33217 10.047 -50)
(-3.02827 11.5095 -50)
(-2.81473 11.5873 -50)
(-2.60135 11.6656 -50)
(-2.38813 11.7444 -50)
(-2.17508 11.8236 -50)
(0.579071 12.8938 -50)
(0.789702 12.9792 -50)
(0.368261 12.8088 -50)
(1.00015 13.0651 -50)
(1.21042 13.1514 -50)
(17.161 20.9681 -50)
(17.352 21.0589 -50)
(54.0803 29.9857 -50)
(54.2917 29.9927 -50)
(54.503 29.9992 -50)
(58.943 30.025 -50)
(59.1544 30.021 -50)
(59.3659 30.0165 -50)
(-23.9217 6.20073 -50)
(-23.697 6.23472 -50)
(-7.11554 10.1158 -50)
(-6.89906 10.1851 -50)
(-0.476751 12.4733 -50)
(-0.265234 12.5565 -50)
(-0.688441 12.3905 -50)
(-0.0538927 12.6401 -50)
(0.157273 12.7242 -50)
(54.7144 30.0052 -50)
(54.9258 30.0108 -50)
(59.5772 30.0115 -50)
(59.7886 30.006 -50)
(-1.11234 12.2263 -50)
(-0.900306 12.3082 -50)
(11.8727 18.2382 -50)
(12.0721 18.3473 -50)
(12.2712 18.4569 -50)
(13.7599 19.2602 -50)
(13.947 19.3587 -50)
(14.1343 19.4568 -50)
(16.5894 20.6931 -50)
(16.7797 20.7852 -50)
(16.9703 20.8769 -50)
(17.5432 21.1493 -50)
(17.7346 21.2392 -50)
(17.9262 21.3287 -50)
(20.2407 22.3685 -50)
(20.4348 22.4523 -50)
(20.6291 22.5357 -50)
(20.8236 22.6186 -50)
(21.0184 22.7011 -50)
(23.3691 23.6562 -50)
(23.5661 23.7329 -50)
(24.1583 23.9603 -50)
(24.3561 24.0352 -50)
(24.554 24.1097 -50)
(24.7521 24.1837 -50)
(24.9503 24.2572 -50)
(25.1487 24.3304 -50)
(25.3473 24.403 -50)
(25.546 24.4752 -50)
(51.5458 29.8645 -50)
(51.7569 29.8772 -50)
(56.6171 30.0379 -50)
(56.8286 30.0391 -50)
(57.04 30.0399 -50)
(14.3218 19.5545 -50)
(14.5096 19.6517 -50)
(14.6976 19.7486 -50)
(21.2132 22.7831 -50)
(21.4083 22.8647 -50)
(21.6036 22.9459 -50)
(23.7634 23.8092 -50)
(23.9608 23.885 -50)
(51.968 29.8895 -50)
(52.1791 29.9013 -50)
(52.3903 29.9126 -50)
(52.6015 29.9234 -50)
(52.8127 29.9337 -50)
(53.0239 29.9436 -50)
(53.2351 29.953 -50)
(53.4464 29.9619 -50)
(16.0196 20.4143 -50)
(16.2093 20.5077 -50)
(16.3992 20.6006 -50)
(21.799 23.0266 -50)
(21.9947 23.1068 -50)
(22.1905 23.1866 -50)
(22.3865 23.266 -50)
(22.5826 23.345 -50)
(22.779 23.4234 -50)
(25.745 24.547 -50)
(25.944 24.6183 -50)
(26.1433 24.6891 -50)
(26.3426 24.7595 -50)
(26.5422 24.8295 -50)
(26.7419 24.899 -50)
(26.9418 24.968 -50)
(27.1418 25.0366 -50)
(27.342 25.1047 -50)
(36.2875 27.6481 -50)
(36.4936 27.6955 -50)
(37.7323 27.9699 -50)
(37.9391 28.014 -50)
(55.56 30.0246 -50)
(55.7714 30.0282 -50)
(55.9828 30.0313 -50)
(56.1943 30.034 -50)
(56.4057 30.0362 -50)
(57.2515 30.0402 -50)
(57.463 30.0399 -50)
(57.6744 30.0393 -50)
(58.3087 30.0343 -50)
(58.5202 30.0317 -50)
(58.7316 30.0286 -50)
(15.2629 20.0364 -50)
(15.4517 20.1315 -50)
(19.0799 21.8565 -50)
(19.2728 21.9429 -50)
(19.466 22.0289 -50)
(19.6594 22.1145 -50)
(19.853 22.1996 -50)
(20.0467 22.2843 -50)
(22.9755 23.5015 -50)
(23.1722 23.5791 -50)
(38.146 28.0576 -50)
(38.353 28.1007 -50)
(38.5601 28.1434 -50)
(38.7673 28.1856 -50)
(38.9746 28.2274 -50)
(39.182 28.2686 -50)
(39.3895 28.3095 -50)
(39.597 28.3498 -50)
(39.8047 28.3896 -50)
(40.0124 28.429 -50)
(40.2203 28.4679 -50)
(40.4282 28.5064 -50)
(41.0525 28.6189 -50)
(41.2608 28.6554 -50)
(41.4691 28.6915 -50)
(50.9128 29.8234 -50)
(51.1238 29.8376 -50)
(51.3348 29.8513 -50)
(57.8859 30.0381 -50)
(58.0973 30.0364 -50)
(14.8858 19.8449 -50)
(15.0742 19.9409 -50)
(15.6408 20.2262 -50)
(15.8301 20.3205 -50)
(18.5021 21.5945 -50)
(18.6945 21.6823 -50)
(18.8871 21.7696 -50)
(28.9488 25.6334 -50)
(29.1504 25.6974 -50)
(29.352 25.761 -50)
(29.5538 25.8241 -50)
(29.7558 25.8868 -50)
(29.9579 25.949 -50)
(30.1601 26.0107 -50)
(31.3765 26.3715 -50)
(31.5797 26.43 -50)
(31.783 26.4881 -50)
(31.9864 26.5457 -50)
(35.4643 27.4539 -50)
(35.6699 27.5032 -50)
(36.6998 27.7424 -50)
(36.9061 27.7888 -50)
(37.1125 27.8348 -50)
(40.6362 28.5444 -50)
(40.8443 28.5819 -50)
(41.6776 28.7271 -50)
(41.8861 28.7623 -50)
(42.0947 28.7969 -50)
(43.9754 29.0876 -50)
(44.1847 29.1175 -50)
(44.3941 29.1469 -50)
(46.9117 29.4632 -50)
(47.1219 29.4864 -50)
(47.3321 29.5092 -50)
(49.8584 29.7453 -50)
(50.0692 29.7619 -50)
(50.2801 29.778 -50)
(18.1179 21.4177 -50)
(18.3099 21.5064 -50)
(27.9434 25.3064 -50)
(28.1442 25.3727 -50)
(28.3451 25.4386 -50)
(32.19 26.6028 -50)
(32.3937 26.6595 -50)
(32.5976 26.7157 -50)
(33.2099 26.8816 -50)
(33.4142 26.9359 -50)
(33.6187 26.9898 -50)
(35.8757 27.552 -50)
(36.0815 27.6003 -50)
(37.319 27.8803 -50)
(37.5256 27.9253 -50)
(44.6036 29.1759 -50)
(44.8131 29.2044 -50)
(45.0227 29.2324 -50)
(45.2323 29.26 -50)
(45.4421 29.287 -50)
(45.6518 29.3136 -50)
(47.9631 29.5747 -50)
(48.1735 29.5956 -50)
(48.3839 29.616 -50)
(48.5945 29.6359 -50)
(48.805 29.6553 -50)
(49.0156 29.6743 -50)
(49.2263 29.6928 -50)
(49.437 29.7108 -50)
(49.6477 29.7283 -50)
(50.491 29.7936 -50)
(50.7019 29.8087 -50)
(28.5462 25.504 -50)
(28.7474 25.5689 -50)
(30.3625 26.072 -50)
(30.565 26.1328 -50)
(30.7677 26.1932 -50)
(30.9705 26.2531 -50)
(31.1734 26.3125 -50)
(32.8016 26.7715 -50)
(33.0057 26.8267 -50)
(33.8233 27.0432 -50)
(34.028 27.0962 -50)
(34.2328 27.1487 -50)
(42.3033 28.8311 -50)
(42.5121 28.8648 -50)
(42.7209 28.8981 -50)
(42.9298 28.9309 -50)
(43.1388 28.9631 -50)
(43.3478 28.995 -50)
(45.8617 29.3398 -50)
(46.0716 29.3654 -50)
(46.2815 29.3906 -50)
(47.5424 29.5315 -50)
(47.7527 29.5534 -50)
(27.5423 25.1724 -50)
(27.7428 25.2396 -50)
(43.557 29.0263 -50)
(43.7661 29.0572 -50)
(46.4915 29.4152 -50)
(46.7016 29.4395 -50)
(34.4378 27.2008 -50)
(34.6429 27.2523 -50)
(34.848 27.3034 -50)
(35.0533 27.3541 -50)
(35.2588 27.4042 -50)
(60 30 50)
(3.30298 14.0387 50)
(3.09457 13.948 50)
(-13.8936 8.19521 50)
(-14.1143 8.14063 50)
(-38.8635 5.00597 50)
(-39.0908 5.00382 50)
(8.65202 16.5494 50)
(8.44886 16.4475 50)
(8.2455 16.3459 50)
(6.40574 15.4516 50)
(6.20029 15.3543 50)
(5.99464 15.2575 50)
(5.78878 15.1612 50)
(5.58272 15.0652 50)
(5.37645 14.9698 50)
(5.16999 14.8747 50)
(4.96333 14.7801 50)
(4.75647 14.6859 50)
(4.54942 14.5921 50)
(12.4565 18.5588 50)
(12.2712 18.4569 50)
(8.04192 16.2448 50)
(7.83813 16.1442 50)
(7.63413 16.0439 50)
(7.42992 15.9441 50)
(7.2255 15.8448 50)
(7.02087 15.7458 50)
(6.81603 15.6473 50)
(6.61099 15.5492 50)
(4.34216 14.4988 50)
(4.13472 14.4059 50)
(3.92707 14.3134 50)
(-8.85253 9.578 50)
(-9.07028 9.51283 50)
(-8.63491 9.64364 50)
(-21.006 6.67944 50)
(-21.2298 6.63979 50)
(-40 5 50)
(-39.7727 5.00024 50)
(12.642 18.6602 50)
(3.71924 14.2214 50)
(3.51121 14.1298 50)
(2.4682 13.6785 50)
(2.25903 13.5895 50)
(-10.3796 9.1314 50)
(-10.5983 9.06944 50)
(-13.2324 8.36175 50)
(-13.4527 8.30577 50)
(-13.6731 8.25026 50)
(-14.335 8.0865 50)
(-14.5559 8.03285 50)
(-14.7769 7.97965 50)
(-17.6594 7.33044 50)
(-17.8819 7.28376 50)
(-18.1044 7.23755 50)
(-18.3271 7.19181 50)
(-19.6649 6.92719 50)
(-19.8882 6.88472 50)
(-20.1116 6.84273 50)
(-20.3351 6.8012 50)
(-20.5586 6.76014 50)
(-20.7823 6.71956 50)
(-21.4537 6.60061 50)
(-21.6777 6.56191 50)
(-21.9017 6.52367 50)
(-22.1259 6.4859 50)
(-29.3344 5.52671 50)
(-29.5606 5.50456 50)
(-29.7869 5.48287 50)
(-30.0132 5.46167 50)
(-30.2395 5.44093 50)
(-30.4659 5.42068 50)
(-30.6924 5.4009 50)
(-30.9188 5.38159 50)
(-31.1454 5.36276 50)
(-31.3719 5.3444 50)
(-39.3181 5.00215 50)
(-39.5454 5.00095 50)
(12.0721 18.3473 50)
(11.8727 18.2382 50)
(11.6731 18.1295 50)
(11.4732 18.0212 50)
(11.2731 17.9133 50)
(11.0729 17.8059 50)
(10.8723 17.6988 50)
(10.6716 17.5922 50)
(10.4706 17.486 50)
(9.86639 17.17 50)
(9.66454 17.0655 50)
(9.46247 16.9614 50)
(9.26018 16.8578 50)
(9.05768 16.7546 50)
(8.85495 16.6518 50)
(2.88597 13.8577 50)
(2.67718 13.7679 50)
(-4.31294 11.0518 50)
(-4.52761 10.9771 50)
(-4.74243 10.9028 50)
(-10.8171 9.00793 50)
(-11.0361 8.94688 50)
(-11.2551 8.8863 50)
(-14.998 7.92692 50)
(-15.2192 7.87465 50)
(-15.4405 7.82285 50)
(-16.1051 7.67024 50)
(-16.3268 7.6203 50)
(-16.5487 7.57082 50)
(-16.7706 7.52181 50)
(-16.9927 7.47327 50)
(-18.5498 7.14654 50)
(-18.7726 7.10173 50)
(-18.9956 7.05739 50)
(-31.5985 5.32653 50)
(-31.8251 5.30912 50)
(-32.0518 5.29219 50)
(-32.732 5.24427 50)
(-32.9588 5.22925 50)
(-33.1856 5.2147 50)
(-33.4125 5.20063 50)
(-33.6394 5.18704 50)
(-33.8663 5.17392 50)
(-34.0932 5.16128 50)
(-34.3202 5.14911 50)
(-34.5472 5.13742 50)
(-34.7742 5.12621 50)
(-35.0013 5.11548 50)
(-35.2283 5.10522 50)
(-35.4554 5.09544 50)
(-35.6825 5.08614 50)
(-35.9096 5.07731 50)
(-36.1368 5.06896 50)
(-36.8183 5.04677 50)
(-37.0455 5.04033 50)
(-37.2727 5.03436 50)
(-37.5 5.02887 50)
(10.2694 17.3803 50)
(10.068 17.2749 50)
(-4.95741 10.829 50)
(-5.17254 10.7556 50)
(-5.38783 10.6827 50)
(-5.60327 10.6103 50)
(-5.81886 10.5383 50)
(-6.0346 10.4668 50)
(-6.25049 10.3957 50)
(-6.46653 10.325 50)
(-6.68272 10.2548 50)
(-6.89906 10.1851 50)
(-7.11554 10.1158 50)
(-7.33217 10.047 50)
(-7.9829 9.84327 50)
(-8.2001 9.77627 50)
(-8.41744 9.70972 50)
(-9.72435 9.32006 50)
(-9.94264 9.25671 50)
(-10.1611 9.19383 50)
(-11.4743 8.82617 50)
(-11.6937 8.7665 50)
(-11.9131 8.7073 50)
(-12.1327 8.64855 50)
(-12.3524 8.59027 50)
(-12.5722 8.53244 50)
(-12.7921 8.47508 50)
(-13.0122 8.41818 50)
(-15.6619 7.77152 50)
(-15.8834 7.72064 50)
(-17.2148 7.42519 50)
(-17.4371 7.37758 50)
(-19.2186 7.01352 50)
(-19.4417 6.97012 50)
(-24.8214 6.06946 50)
(-25.0464 6.03783 50)
(-25.2716 6.00666 50)
(-25.4968 5.97597 50)
(-27.075 5.7744 50)
(-27.3007 5.74749 50)
(-26.8494 5.80177 50)
(-27.5265 5.72107 50)
(-27.7523 5.69511 50)
(-27.9782 5.66963 50)
(-28.2041 5.64462 50)
(-28.4301 5.62009 50)
(-28.6561 5.59604 50)
(-32.2785 5.27574 50)
(-32.5052 5.25977 50)
(-36.3639 5.06108 50)
(-36.5911 5.05369 50)
(-2.17508 11.8236 50)
(-2.38813 11.7444 50)
(-2.60135 11.6656 50)
(-2.81473 11.5873 50)
(-3.02827 11.5095 50)
(-3.24198 11.4321 50)
(-3.45585 11.3551 50)
(-3.66989 11.2786 50)
(-3.88408 11.2025 50)
(-4.09843 11.1269 50)
(-7.54894 9.97864 50)
(-7.76585 9.91072 50)
(-9.28817 9.44811 50)
(-9.50619 9.38386 50)
(-25.7221 5.94576 50)
(-25.9474 5.91601 50)
(-26.1728 5.88674 50)
(-26.3983 5.85795 50)
(-26.6238 5.82962 50)
(-28.8821 5.57245 50)
(-29.1083 5.54935 50)
(-38.1817 5.01527 50)
(-38.409 5.01169 50)
(-38.6363 5.00859 50)
(54.0803 29.9857 50)
(53.869 29.9783 50)
(54.2917 29.9927 50)
(41.8861 28.7623 50)
(41.6776 28.7271 50)
(2.04968 13.501 50)
(1.84014 13.4129 50)
(1.63042 13.3253 50)
(1.42051 13.2381 50)
(1.21042 13.1514 50)
(1.00015 13.0651 50)
(-0.900306 12.3082 50)
(-1.11234 12.2263 50)
(-1.32455 12.1449 50)
(-1.53693 12.0639 50)
(-22.3501 6.44861 50)
(-22.5744 6.41178 50)
(-22.7987 6.37543 50)
(-23.0232 6.33954 50)
(-23.2477 6.30413 50)
(-23.4723 6.26919 50)
(-24.1465 6.1672 50)
(-24.3714 6.13415 50)
(-24.5963 6.10157 50)
(-37.7272 5.02386 50)
(-37.9545 5.01933 50)
(55.1371 30.0159 50)
(54.9258 30.0108 50)
(55.3485 30.0204 50)
(0.789702 12.9792 50)
(0.579071 12.8938 50)
(0.368261 12.8088 50)
(0.157273 12.7242 50)
(-0.0538927 12.6401 50)
(-0.265234 12.5565 50)
(-1.74948 11.9833 50)
(-1.96219 11.9032 50)
(-23.697 6.23472 50)
(-23.9217 6.20073 50)
(54.7144 30.0052 50)
(54.503 29.9992 50)
(17.7346 21.2392 50)
(17.5432 21.1493 50)
(17.352 21.0589 50)
(17.161 20.9681 50)
(16.9703 20.8769 50)
(-0.476751 12.4733 50)
(-0.688441 12.3905 50)
(59.7886 30.006 50)
(59.5772 30.0115 50)
(59.3659 30.0165 50)
(25.546 24.4752 50)
(25.3473 24.403 50)
(25.1487 24.3304 50)
(24.9503 24.2572 50)
(20.8236 22.6186 50)
(20.6291 22.5357 50)
(21.0184 22.7011 50)
(20.4348 22.4523 50)
(20.2407 22.3685 50)
(20.0467 22.2843 50)
(13.3863 19.0619 50)
(13.1999 18.9621 50)
(56.8286 30.0391 50)
(56.6171 30.0379 50)
(53.6577 29.9703 50)
(53.4464 29.9619 50)
(53.2351 29.953 50)
(53.0239 29.9436 50)
(52.8127 29.9337 50)
(52.6015 29.9234 50)
(52.3903 29.9126 50)
(52.1791 29.9013 50)
(51.968 29.8895 50)
(51.7569 29.8772 50)
(51.5458 29.8645 50)
(51.3348 29.8513 50)
(40.2203 28.4679 50)
(40.0124 28.429 50)
(33.2099 26.8816 50)
(33.0057 26.8267 50)
(27.1418 25.0366 50)
(26.9418 24.968 50)
(26.7419 24.899 50)
(24.7521 24.1837 50)
(24.554 24.1097 50)
(24.3561 24.0352 50)
(21.6036 22.9459 50)
(21.4083 22.8647 50)
(21.2132 22.7831 50)
(16.7797 20.7852 50)
(16.5894 20.6931 50)
(16.3992 20.6006 50)
(14.5096 19.6517 50)
(14.3218 19.5545 50)
(14.1343 19.4568 50)
(13.947 19.3587 50)
(13.7599 19.2602 50)
(13.573 19.1613 50)
(13.0137 18.8619 50)
(12.8277 18.7613 50)
(59.1544 30.021 50)
(58.943 30.025 50)
(58.7316 30.0286 50)
(57.463 30.0399 50)
(57.2515 30.0402 50)
(57.04 30.0399 50)
(46.0716 29.3654 50)
(45.8617 29.3398 50)
(41.0525 28.6189 50)
(40.8443 28.5819 50)
(36.6998 27.7424 50)
(36.4936 27.6955 50)
(26.5422 24.8295 50)
(26.3426 24.7595 50)
(26.1433 24.6891 50)
(25.944 24.6183 50)
(25.745 24.547 50)
(24.1583 23.9603 50)
(23.9608 23.885 50)
(23.7634 23.8092 50)
(16.2093 20.5077 50)
(16.0196 20.4143 50)
(15.8301 20.3205 50)
(58.5202 30.0317 50)
(58.3087 30.0343 50)
(58.0973 30.0364 50)
(56.4057 30.0362 50)
(56.1943 30.034 50)
(55.9828 30.0313 50)
(55.7714 30.0282 50)
(55.56 30.0246 50)
(51.1238 29.8376 50)
(50.9128 29.8234 50)
(50.7019 29.8087 50)
(41.4691 28.6915 50)
(41.2608 28.6554 50)
(39.8047 28.3896 50)
(39.597 28.3498 50)
(39.3895 28.3095 50)
(39.182 28.2686 50)
(38.9746 28.2274 50)
(38.7673 28.1856 50)
(38.5601 28.1434 50)
(38.353 28.1007 50)
(38.146 28.0576 50)
(36.9061 27.7888 50)
(23.5661 23.7329 50)
(23.3691 23.6562 50)
(23.1722 23.5791 50)
(22.3865 23.266 50)
(22.1905 23.1866 50)
(22.5826 23.345 50)
(21.9947 23.1068 50)
(21.799 23.0266 50)
(19.853 22.1996 50)
(19.6594 22.1145 50)
(19.466 22.0289 50)
(19.2728 21.9429 50)
(19.0799 21.8565 50)
(18.8871 21.7696 50)
(15.2629 20.0364 50)
(15.0742 19.9409 50)
(57.8859 30.0381 50)
(57.6744 30.0393 50)
(49.8584 29.7453 50)
(49.6477 29.7283 50)
(50.0692 29.7619 50)
(45.0227 29.2324 50)
(44.8131 29.2044 50)
(45.2323 29.26 50)
(43.9754 29.0876 50)
(43.7661 29.0572 50)
(44.1847 29.1175 50)
(40.6362 28.5444 50)
(40.4282 28.5064 50)
(37.9391 28.014 50)
(37.7323 27.9699 50)
(37.5256 27.9253 50)
(32.3937 26.6595 50)
(32.19 26.6028 50)
(31.9864 26.5457 50)
(31.783 26.4881 50)
(29.9579 25.949 50)
(29.7558 25.8868 50)
(29.5538 25.8241 50)
(22.9755 23.5015 50)
(22.779 23.4234 50)
(18.6945 21.6823 50)
(18.5021 21.5945 50)
(18.3099 21.5064 50)
(15.6408 20.2262 50)
(15.4517 20.1315 50)
(14.8858 19.8449 50)
(14.6976 19.7486 50)
(50.491 29.7936 50)
(50.2801 29.778 50)
(49.437 29.7108 50)
(49.2263 29.6928 50)
(49.0156 29.6743 50)
(48.805 29.6553 50)
(48.5945 29.6359 50)
(48.3839 29.616 50)
(48.1735 29.5956 50)
(47.9631 29.5747 50)
(47.7527 29.5534 50)
(46.9117 29.4632 50)
(46.7016 29.4395 50)
(47.1219 29.4864 50)
(45.6518 29.3136 50)
(45.4421 29.287 50)
(44.6036 29.1759 50)
(44.3941 29.1469 50)
(37.319 27.8803 50)
(37.1125 27.8348 50)
(36.2875 27.6481 50)
(36.0815 27.6003 50)
(35.8757 27.552 50)
(34.6429 27.2523 50)
(34.4378 27.2008 50)
(33.8233 27.0432 50)
(33.6187 26.9898 50)
(33.4142 26.9359 50)
(31.5797 26.43 50)
(31.3765 26.3715 50)
(31.1734 26.3125 50)
(29.352 25.761 50)
(29.1504 25.6974 50)
(28.9488 25.6334 50)
(18.1179 21.4177 50)
(17.9262 21.3287 50)
(47.5424 29.5315 50)
(47.3321 29.5092 50)
(43.1388 28.9631 50)
(42.9298 28.9309 50)
(42.7209 28.8981 50)
(42.5121 28.8648 50)
(42.3033 28.8311 50)
(42.0947 28.7969 50)
(34.2328 27.1487 50)
(34.028 27.0962 50)
(32.8016 26.7715 50)
(32.5976 26.7157 50)
(30.9705 26.2531 50)
(30.7677 26.1932 50)
(30.565 26.1328 50)
(30.3625 26.072 50)
(30.1601 26.0107 50)
(28.7474 25.5689 50)
(28.5462 25.504 50)
(28.3451 25.4386 50)
(28.1442 25.3727 50)
(27.9434 25.3064 50)
(27.7428 25.2396 50)
(46.4915 29.4152 50)
(46.2815 29.3906 50)
(43.557 29.0263 50)
(43.3478 28.995 50)
(27.5423 25.1724 50)
(27.342 25.1047 50)
(35.6699 27.5032 50)
(35.4643 27.4539 50)
(35.2588 27.4042 50)
(35.0533 27.3541 50)
(34.848 27.3034 50)
)

// edges

964
(
(0 1)
(8 0)
(9 10)
(11 12)
(12 13)
(14 15)
(16 17)
(18 19)
(13 20)
(20 21)
(21 22)
(22 23)
(23 24)
(24 25)
(15 26)
(26 27)
(27 28)
(2 3)
(3 29)
(29 30)
(30 31)
(32 33)
(33 34)
(34 35)
(17 36)
(36 37)
(37 38)
(39 40)
(40 41)
(41 42)
(42 43)
(43 44)
(44 45)
(46 47)
(48 49)
(31 50)
(50 51)
(51 9)
(52 53)
(53 54)
(54 55)
(55 56)
(56 57)
(57 58)
(58 59)
(59 60)
(60 61)
(62 63)
(63 64)
(64 65)
(35 66)
(66 67)
(67 68)
(68 69)
(69 70)
(70 71)
(71 72)
(72 73)
(73 16)
(74 75)
(75 76)
(76 18)
(19 77)
(77 78)
(78 79)
(79 80)
(80 81)
(81 82)
(83 84)
(84 85)
(49 86)
(86 87)
(87 88)
(88 89)
(89 90)
(90 11)
(25 91)
(91 92)
(92 14)
(93 94)
(95 96)
(96 97)
(98 99)
(99 100)
(100 101)
(102 103)
(103 104)
(104 105)
(105 106)
(106 107)
(107 108)
(108 109)
(109 110)
(110 111)
(111 112)
(112 113)
(113 114)
(114 115)
(115 116)
(116 117)
(61 118)
(118 119)
(119 120)
(38 121)
(121 122)
(122 123)
(82 124)
(124 125)
(125 126)
(126 127)
(127 128)
(128 129)
(130 131)
(131 132)
(132 133)
(133 134)
(135 136)
(85 137)
(137 138)
(138 46)
(47 139)
(139 140)
(140 48)
(101 141)
(141 142)
(142 102)
(117 143)
(143 144)
(144 52)
(145 146)
(147 148)
(148 149)
(149 74)
(129 150)
(150 151)
(151 130)
(134 152)
(152 153)
(153 154)
(45 155)
(155 156)
(156 157)
(157 158)
(158 159)
(159 160)
(161 162)
(28 163)
(163 164)
(164 165)
(165 166)
(166 167)
(167 93)
(94 168)
(168 169)
(169 170)
(171 172)
(173 174)
(175 176)
(177 175)
(10 178)
(178 179)
(179 180)
(120 181)
(181 182)
(182 62)
(65 183)
(183 184)
(184 185)
(185 186)
(186 187)
(187 188)
(188 189)
(189 190)
(190 191)
(191 192)
(192 193)
(1 2)
(193 194)
(194 195)
(195 196)
(196 197)
(197 198)
(123 199)
(199 200)
(200 201)
(146 202)
(202 203)
(203 147)
(154 204)
(204 205)
(205 135)
(206 207)
(207 208)
(208 209)
(209 39)
(210 211)
(211 212)
(212 213)
(162 214)
(214 215)
(215 83)
(170 216)
(216 217)
(217 95)
(218 219)
(176 218)
(219 220)
(220 221)
(180 222)
(222 223)
(223 98)
(224 225)
(226 224)
(225 227)
(227 228)
(228 32)
(201 229)
(229 230)
(230 145)
(136 231)
(231 232)
(232 233)
(233 234)
(234 235)
(235 236)
(160 237)
(237 238)
(238 239)
(239 240)
(240 241)
(241 210)
(242 243)
(244 242)
(243 245)
(245 246)
(246 161)
(247 248)
(172 249)
(249 250)
(250 251)
(252 253)
(253 254)
(198 255)
(255 256)
(256 226)
(236 257)
(257 258)
(258 206)
(259 260)
(261 259)
(260 262)
(262 263)
(263 244)
(251 264)
(264 265)
(265 173)
(254 266)
(266 267)
(267 8)
(213 268)
(268 269)
(269 261)
(97 270)
(270 271)
(271 272)
(272 177)
(221 273)
(273 274)
(274 275)
(276 277)
(277 278)
(278 247)
(248 279)
(279 280)
(280 281)
(282 283)
(283 284)
(284 285)
(285 286)
(287 288)
(289 290)
(290 291)
(291 292)
(292 293)
(293 294)
(294 295)
(295 296)
(297 298)
(299 300)
(300 301)
(275 302)
(302 303)
(303 304)
(286 305)
(305 306)
(306 307)
(288 308)
(308 309)
(309 289)
(298 310)
(310 311)
(311 312)
(312 313)
(313 314)
(314 315)
(315 316)
(316 317)
(317 171)
(318 319)
(319 320)
(320 276)
(307 321)
(321 322)
(322 323)
(323 324)
(324 325)
(325 326)
(296 327)
(327 328)
(328 329)
(329 330)
(330 331)
(331 332)
(332 333)
(333 334)
(334 335)
(336 337)
(338 339)
(174 340)
(340 341)
(341 342)
(342 343)
(343 344)
(344 299)
(301 345)
(345 346)
(346 347)
(348 349)
(349 350)
(350 252)
(351 352)
(353 354)
(354 355)
(355 356)
(356 357)
(357 358)
(358 282)
(326 359)
(359 360)
(360 287)
(339 361)
(361 362)
(362 363)
(363 364)
(364 365)
(365 366)
(366 367)
(367 368)
(368 369)
(369 370)
(370 371)
(371 372)
(373 374)
(374 375)
(376 377)
(377 378)
(378 297)
(347 379)
(379 380)
(380 348)
(304 381)
(381 382)
(382 351)
(352 383)
(383 384)
(384 318)
(385 386)
(386 387)
(387 353)
(388 389)
(389 390)
(390 391)
(391 392)
(392 393)
(393 394)
(395 396)
(396 397)
(397 398)
(399 400)
(337 401)
(401 402)
(402 403)
(372 404)
(404 405)
(405 373)
(375 406)
(406 407)
(407 408)
(409 410)
(410 411)
(412 413)
(413 414)
(415 416)
(416 417)
(281 418)
(418 419)
(419 385)
(420 421)
(421 422)
(398 423)
(423 424)
(424 425)
(426 427)
(427 428)
(400 429)
(429 430)
(430 336)
(403 431)
(431 432)
(432 338)
(411 433)
(433 434)
(434 435)
(435 436)
(436 437)
(437 438)
(439 440)
(440 441)
(441 442)
(442 443)
(443 444)
(444 445)
(445 446)
(446 447)
(447 415)
(417 448)
(448 449)
(449 376)
(422 450)
(450 451)
(451 388)
(394 452)
(452 453)
(453 454)
(454 455)
(455 456)
(456 395)
(425 457)
(457 458)
(458 426)
(428 459)
(459 460)
(460 461)
(408 462)
(462 463)
(463 464)
(464 465)
(465 466)
(466 467)
(438 468)
(468 469)
(469 470)
(414 471)
(471 472)
(472 439)
(335 473)
(473 474)
(474 420)
(467 475)
(475 476)
(476 409)
(470 477)
(477 478)
(478 412)
(461 479)
(479 480)
(480 481)
(481 482)
(482 483)
(483 399)
(4 5)
(5 484)
(485 486)
(487 488)
(489 490)
(491 492)
(492 493)
(494 495)
(495 496)
(496 497)
(497 498)
(498 499)
(499 500)
(500 501)
(501 502)
(502 503)
(504 505)
(493 506)
(506 507)
(507 508)
(508 509)
(509 510)
(510 511)
(511 512)
(512 513)
(513 494)
(503 514)
(514 515)
(515 516)
(517 518)
(519 517)
(520 521)
(7 6)
(522 7)
(523 522)
(524 504)
(516 525)
(525 526)
(526 485)
(527 528)
(529 530)
(531 532)
(532 533)
(533 487)
(488 534)
(534 535)
(535 536)
(537 538)
(538 539)
(539 540)
(541 542)
(542 543)
(543 544)
(544 545)
(545 546)
(546 520)
(521 547)
(547 548)
(6 4)
(548 549)
(549 550)
(551 552)
(552 553)
(553 554)
(554 555)
(555 556)
(556 557)
(557 558)
(558 559)
(559 560)
(490 561)
(561 562)
(562 523)
(505 563)
(563 564)
(564 565)
(565 566)
(566 567)
(567 568)
(568 569)
(569 570)
(570 571)
(572 573)
(573 574)
(574 575)
(575 576)
(576 577)
(577 491)
(486 578)
(578 579)
(579 527)
(580 581)
(581 582)
(530 583)
(583 584)
(584 585)
(536 586)
(586 587)
(587 588)
(589 590)
(590 591)
(591 592)
(592 593)
(540 594)
(594 595)
(595 596)
(560 597)
(597 598)
(598 599)
(600 601)
(601 602)
(602 603)
(603 604)
(604 605)
(605 606)
(606 607)
(607 608)
(608 609)
(609 610)
(610 611)
(611 612)
(612 613)
(613 614)
(614 615)
(616 617)
(617 618)
(618 619)
(571 620)
(620 621)
(621 572)
(582 622)
(622 623)
(623 624)
(624 625)
(625 626)
(626 627)
(627 628)
(628 629)
(629 630)
(630 631)
(631 632)
(632 633)
(634 635)
(635 636)
(636 519)
(637 638)
(638 639)
(639 529)
(585 640)
(640 641)
(641 642)
(642 643)
(643 644)
(644 645)
(645 646)
(646 647)
(647 531)
(588 648)
(648 649)
(649 589)
(593 650)
(650 651)
(651 537)
(596 652)
(652 653)
(653 541)
(654 655)
(655 656)
(656 657)
(658 659)
(660 658)
(659 661)
(661 662)
(662 663)
(663 664)
(664 665)
(665 666)
(599 667)
(667 668)
(668 600)
(615 669)
(669 670)
(670 616)
(671 672)
(672 673)
(673 674)
(674 675)
(675 676)
(676 677)
(677 678)
(678 679)
(679 680)
(680 580)
(633 681)
(681 682)
(682 634)
(518 683)
(683 684)
(684 637)
(657 685)
(685 686)
(686 687)
(687 688)
(688 689)
(689 660)
(666 690)
(690 691)
(691 551)
(692 693)
(693 694)
(694 489)
(695 696)
(697 695)
(698 699)
(528 700)
(700 701)
(701 702)
(702 703)
(703 704)
(704 705)
(706 707)
(707 708)
(708 709)
(550 710)
(710 711)
(711 712)
(712 713)
(713 714)
(714 715)
(716 717)
(717 718)
(718 654)
(619 719)
(719 720)
(720 692)
(721 722)
(723 721)
(705 724)
(724 725)
(725 726)
(726 727)
(727 728)
(728 729)
(709 730)
(730 731)
(731 671)
(715 732)
(732 733)
(733 716)
(722 734)
(734 735)
(735 697)
(736 737)
(737 738)
(738 739)
(739 740)
(729 741)
(741 742)
(742 706)
(484 743)
(743 744)
(744 745)
(746 747)
(747 748)
(748 749)
(750 751)
(752 750)
(751 753)
(753 754)
(754 755)
(756 757)
(758 759)
(696 760)
(760 761)
(761 762)
(762 763)
(763 764)
(764 765)
(765 766)
(766 767)
(767 768)
(768 769)
(769 770)
(770 771)
(772 773)
(774 775)
(776 777)
(777 778)
(749 779)
(779 780)
(780 781)
(782 783)
(783 784)
(784 752)
(740 785)
(785 786)
(786 787)
(788 789)
(789 790)
(790 791)
(791 792)
(792 793)
(793 756)
(757 794)
(794 795)
(795 524)
(745 796)
(796 797)
(797 798)
(799 800)
(800 801)
(801 758)
(802 803)
(804 805)
(806 807)
(778 808)
(808 809)
(809 810)
(810 811)
(811 812)
(812 746)
(781 813)
(813 814)
(814 815)
(787 816)
(816 817)
(817 818)
(798 819)
(819 820)
(820 821)
(759 822)
(822 823)
(823 824)
(824 825)
(825 826)
(826 723)
(771 827)
(827 828)
(828 829)
(699 830)
(830 831)
(831 804)
(773 832)
(832 833)
(833 834)
(834 835)
(835 836)
(836 837)
(837 838)
(838 839)
(839 840)
(841 806)
(815 842)
(842 843)
(843 844)
(845 846)
(847 845)
(846 848)
(848 849)
(849 782)
(755 850)
(850 851)
(851 852)
(852 853)
(853 854)
(854 855)
(856 857)
(821 858)
(858 859)
(859 799)
(860 861)
(862 860)
(863 864)
(865 863)
(866 867)
(868 866)
(805 869)
(869 870)
(870 772)
(840 871)
(871 872)
(872 873)
(874 875)
(875 876)
(876 877)
(878 879)
(879 880)
(844 881)
(881 882)
(882 847)
(855 883)
(883 884)
(884 885)
(818 886)
(886 887)
(887 856)
(857 888)
(888 889)
(889 788)
(829 890)
(890 891)