/*--------------------------------*- C++ -*----------------------------------*\
  =========                 |
  \\      /  F ield         | OpenFOAM: The Open Source CFD Toolbox
   \\    /   O peration     | Website:  https://openfoam.org
    \\  /    A nd           | Version:  7
     \\/     M anipulation  |
\*---------------------------------------------------------------------------*/
FoamFile
{
    version     2.0;
    format      ascii;
    class       dictionary;
    object      topoSetDict;
}

// * * * * * * * * * * * * * * * * * * * * * * * * * * * * * * * * * * * * * //

actions
(
    {
        name    coupledWall;
        type    faceSet;
        action  new;
        source  boxToFace;
        sourceInfo
        {
            box (-1e-6 -1e-6 -0.5) (1e-6 1.001 0.5);
        }
    }

    {
        name    coupledWall;
        type    faceZoneSet;
        action  new;
        source  setToFaceZone;
        sourceInfo
        {
            faceSet   coupledWall;
        }
    }

    {
        name    protectedCells;
        type    cellSet;
        action  new;
        source  boxToCell;
        sourceInfo
        {
            box (-0.5 1 -0.5)(0.5 2 0.5);
        }
    }
);

// ************************************************************************* //
