/*--------------------------------*- C++ -*----------------------------------*\
| =========                 |                                                 |
| \\      /  F ield         | OpenFOAM: The Open Source CFD Toolbox           |
|  \\    /   O peration     | Version:  4.x                                   |
|   \\  /    A nd           | Web:      www.OpenFOAM.org                      |
|    \\/     M anipulation  |                                                 |
\*---------------------------------------------------------------------------*/
FoamFile
{
    version         2.0;
    format          ascii;
    class           dictionary;
    object          controlDict;
}
// * * * * * * * * * * * * * * * * * * * * * * * * * * * * * * * * * * * * * //

libs ( "libOpenFOAM.so" ) ;

application     diffusionFireFoam;

startFrom       latestTime;

startTime       0.0;

stopAt          endTime;

endTime         15;

deltaT          1e-5;

writeControl    adjustableRunTime;

writeInterval   0.025;

purgeWrite      0;

writeFormat     ascii;

writePrecision  6;

writeCompression uncompressed;

timeFormat      general;

timePrecision   6;

graphFormat     raw;

runTimeModifiable yes;

adjustTimeStep  yes;

maxCo           0.4;

OptimisationSwitches
{
    //- Parallel IO file handler
    //  uncollated (default), collated or masterUncollated
    fileHandler collated;
}

functions
{   
    /*varRho
    {
       libs ("libutilityFunctionObjects.so");
        
       type coded;
       name varRho;

       codeExecute
       #{ 
          const volScalarField& rho = mesh().lookupObject<volScalarField>("rho");
          //const volScalarField& delta = mesh().lookupObject<volScalarField>("delta");
          
          volVectorField gradRho = fvc::grad(rho);
          volScalarField divRho = mag(gradRho.component(0)) + mag(gradRho.component(1)) + mag(gradRho.component(2));
          //volScalarField divRho = mag(gradRho);
          //divRho *= delta;
          //divRho.ref() *= pow(mesh().V(),1/3);
          divRho -= min(divRho);
          divRho /= max(divRho);
          
          static autoPtr<volScalarField> pField;
          if(!pField.valid())
          {
              pField.set
              (
                  new volScalarField
                  (
                      IOobject
                      (
                          "varRho",
                          mesh().time().timeName(),
                          rho.mesh(),
                          IOobject::NO_READ,
                          IOobject::AUTO_WRITE
                      ),
                      divRho
                  )
              );
          }
          
          volScalarField& varRho = pField();
          
          varRho.checkIn();
          
          varRho = divRho;
      #};
    }*/

    Enstrophy
    {
       libs ("libutilityFunctionObjects.so");

       type coded;
       name Enstrophy;

       codeExecute
       #{
          const volVectorField& U = mesh().lookupObject<volVectorField>("U");

          volScalarField tenst = 0.5*magSqr(fvc::curl(U));

          tenst -= min(tenst);
          tenst /= max(tenst);

          static autoPtr<volScalarField> pField;
          if(!pField.valid())
          {
              pField.set
              (
                  new volScalarField
                  (
                      IOobject
                      (
                          "sEnst",
                          mesh().time().timeName(),
                          U.mesh(),
                          IOobject::NO_READ,
                          IOobject::AUTO_WRITE
                      ),
                      tenst
                  )
              );
          }

          volScalarField& sEnst = pField();

          sEnst.checkIn();

          sEnst = tenst;
      #};
    }
    
    /*sRate
    {
       libs ("libutilityFunctionObjects.so");

       type coded;
       name sRate;

       codeExecute
       #{
          const volVectorField& U = mesh().lookupObject<volVectorField>("U");

          volScalarField tS = mag(fvc::grad(U));

          tS -= min(tS);
          tS /= max(tS);

          static autoPtr<volScalarField> pField;
          if(!pField.valid())
          {
              pField.set
              (
                  new volScalarField
                  (
                      IOobject
                      (
                          "sRate",
                          mesh().time().timeName(),
                          U.mesh(),
                          IOobject::NO_READ,
                          IOobject::AUTO_WRITE
                      ),
                      tS
                  )
              );
          }

          volScalarField& sRate = pField();

          sRate.checkIn();

          sRate = tS;
      #};
    }*/

    /*rRho
    {
       libs ("libutilityFunctionObjects.so");
        
       type coded;
       name rRho;

       codeExecute
       #{
          const volScalarField& rho = mesh().lookupObject<volScalarField>("rho");
          
          volScalarField rrho = 1/(rho + dimensionedScalar("VSMALL",dimDensity,VSMALL));
          rrho -= min(rrho);
          rrho /= max(rrho);
          
          static autoPtr<volScalarField> pField;
          if(!pField.valid())
          {
              pField.set
              (
                  new volScalarField
                  (
                      IOobject
                      (
                          "rRho",
                          mesh().time().timeName(),
                          rho.mesh(),
                          IOobject::NO_READ,
                          IOobject::AUTO_WRITE
                      ),
                      rrho
                  )
              );
          }
          
          volScalarField& rRho = pField();
          
          rRho.checkIn();
          
          rRho = rrho;
      #};
    }*/

    sQ
    {
       libs ("libutilityFunctionObjects.so");
        
       type coded;
       name rRho;

       codeExecute
       #{
          const volScalarField& Qdot = mesh().lookupObject<volScalarField>("Qdot");
          
          volScalarField qdot = Qdot;
          qdot -= min(qdot);
          qdot /= max(qdot);
          
          static autoPtr<volScalarField> pField;
          if(!pField.valid())
          {
              pField.set
              (
                  new volScalarField
                  (
                      IOobject
                      (
                          "sQ",
                          mesh().time().timeName(),
                          Qdot.mesh(),
                          IOobject::NO_READ,
                          IOobject::AUTO_WRITE
                      ),
                      qdot
                  )
              );
          }
          
          volScalarField& sQ = pField();
          
          sQ.checkIn();
          
          sQ = qdot;
      #};
    }
    
    /*Xi
    {
       libs ("libutilityFunctionObjects.so");
        
       type coded;
       name Xi;

       codeExecute
       #{
          const volScalarField& rho = mesh().lookupObject<volScalarField>("rho");
          const volVectorField& U = mesh().lookupObject<volVectorField>("U");
          
          volScalarField rrho = 1/(rho + dimensionedScalar("VSMALL",dimDensity,VSMALL));
          rrho -= min(rrho);
          rrho /= max(rrho);
          
          volScalarField xi = rrho;
          
          if (mesh().time().value() > 0.1)
          {
              volScalarField sRate = mag(fvc::grad(U));
              sRate -= min(sRate);
              sRate /= max(sRate);
          
              xi = 3*rrho + 2*sRate;
              xi /= max(xi);
          }
          
          static autoPtr<volScalarField> pField;
          if(!pField.valid())
          {
              pField.set
              (
                  new volScalarField
                  (
                      IOobject
                      (
                          "Xi",
                          mesh().time().timeName(),
                          rho.mesh(),
                          IOobject::NO_READ,
                          IOobject::AUTO_WRITE
                      ),
                      xi
                  )
              );
          }
          
          volScalarField& Xi = pField();
          
          Xi.checkIn();
          
          Xi = xi;
      #};
    }*/
    
    /*LESdelta
    {
       libs ("libutilityFunctionObjects.so");
        
       type coded;
       name LESdelta;

       codeExecute
       #{
          const volScalarField& delta = mesh().lookupObject<volScalarField>("rho");
          
          static autoPtr<volScalarField> pField;
          if(!pField.valid())
          {
              pField.set
              (
                  new volScalarField
                  (
                      IOobject
                      (
                          "LESdelta",
                          mesh().time().timeName(),
                          delta.mesh(),
                          IOobject::NO_READ,
                          IOobject::AUTO_WRITE
                      ),
                      delta
                  )
              );
          }
          
          volScalarField& LESdelta = pField();
          
          LESdelta.checkIn();
          
          LESdelta = delta;
      #};
    }*/
}


// ************************************************************************* //
