/*--------------------------------*- C++ -*----------------------------------*\
  =========                 |
  \\      /  F ield         | OpenFOAM: The Open Source CFD Toolbox
   \\    /   O peration     | Website:  https://openfoam.org
    \\  /    A nd           | Version:  7
     \\/     M anipulation  |
\*---------------------------------------------------------------------------*/
FoamFile
{
    version     2.0;
    format      ascii;
    class       dictionary;
    location    "constant";
    object      SurfaceFilmProperties;
}
// * * * * * * * * * * * * * * * * * * * * * * * * * * * * * * * * * * * * * //

active          true;

surfaceFilmModel thermoSingleLayer;

regionName      filmRegion;

thermoSingleLayerCoeffs
{
    pyrolysisCoupled false;

    filmThermoModel liquid;
    liquidCoeffs
    {
        useReferenceValues  no;
        liquid          H2O;
    }
    filmViscosityModel  liquid;

    hydrophilic     no;
    deltaWet        1e-4;
    hydrophilicDryScale 0.02;
    hydrophilicWetScale 0.5;

    turbulence      laminar;
    laminarCoeffs
    {
        Cf              0.005;
    }

    Tmax 500.0;
    Tmin 298.15;

    radiationModel  none;

    standardRadiationCoeffs
    {
        deltaMin 1e-8;
        beta     0.75;
        kappaBar 0.25;
    }

    upperSurfaceModels
    {
        heatTransferModel constant;
        constantCoeffs
        {
           c0              10;
        }

        //heatTransferModel mappedConvectiveHeatTransfer;
    }

    lowerSurfaceModels
    {
        heatTransferModel constant;
        constantCoeffs
        {
            c0             100;
        }
    }

    injectionModels
    ();

    forces
    (
        thermocapillary
        distributionContactAngle
    );

    distributionContactAngleCoeffs
    {
        Ccf          0.085;

        distribution
        {
            type            normal;
            normalDistribution
            {
                minValue        50;
                maxValue        100;
                expectation     75;
                variance        10;
            }
        }

        zeroForcePatches ();
    }

    phaseChangeModel standardPhaseChange;

    standardPhaseChangeCoeffs
    {
        Tb              373;
        deltaMin        1e-8;
        L               1.0;
    }
}
