/*--------------------------------*- C++ -*----------------------------------*\
  =========                 |
  \\      /  F ield         | OpenFOAM: The Open Source CFD Toolbox
   \\    /   O peration     | Website:  https://openfoam.org
    \\  /    A nd           | Version:  dev
     \\/     M anipulation  |
\*---------------------------------------------------------------------------*/
FoamFile
{
    version         2.0;
    format          ascii;
    class           dictionary;
    location        "system";
    object          sample;
}

// * * * * * * * * * * * * * * * * * * * * * * * * * * * * * * * * * * * * * //

type surfaces;
libs            ("libsampling.so");

interpolationScheme cellPoint;

surfaceFormat           vtk;

surfaces
(
    cuttingPlane
    {
        type         cuttingPlane;
        planeType    pointAndNormal;
        pointAndNormalDict
        {
            basePoint    (0 0 0.001);
            normalVector (0 0 1);
        }
        interpolate  true;
    }
);

fields
(
    T
    U
);


// ************************************************************************* //
