/*--------------------------------*- C++ -*----------------------------------*\
| =========                 |                                                 |
| \\      /  F ield         | OpenFOAM: The Open Source CFD Toolbox           |
|  \\    /   O peration     | Version:  4.x                                   |
|   \\  /    A nd           | Web:      www.OpenFOAM.org                      |
|    \\/     M anipulation  |                                                 |
\*---------------------------------------------------------------------------*/
FoamFile
{
    version         2.0;
    format          ascii;
    class           dictionary;
    object          controlDict;
}
// * * * * * * * * * * * * * * * * * * * * * * * * * * * * * * * * * * * * * //

libs
(
);

application     fireFoam;

startFrom       latestTime;

startTime       0.0;

stopAt          endTime;

endTime         15;

deltaT          1e-3;

writeControl    adjustableRunTime;

writeInterval   15;

purgeWrite      0;

writeFormat     binary;

writePrecision  12;

writeCompression uncompressed;

timeFormat      general;

timePrecision   6;

graphFormat     raw;

runTimeModifiable yes;

adjustTimeStep  yes;

maxCo           0.5;

maxDi           0.25;

OptimisationSwitches
{
    //- Parallel IO file handler
    //  uncollated (default), collated or masterUncollated
    fileHandler collated;
}

// ************************************************************************* //
