/*--------------------------------*- C++ -*----------------------------------*\
  =========                 |
  \\      /  F ield         | OpenFOAM: The Open Source CFD Toolbox
   \\    /   O peration     | Website:  https://openfoam.org
    \\  /    A nd           | Version:  dev
     \\/     M anipulation  |
\*---------------------------------------------------------------------------*/
FoamFile
{
    version     2.0;
    format      ascii;
    class       dictionary;
    object      extrudeToRegionMeshDict;
}
// * * * * * * * * * * * * * * * * * * * * * * * * * * * * * * * * * * * * * //

region          pyrolysisRegion;

faceZones       (
                    coupledWall
                );

oneD            true;

sampleMode      nearestPatchFace;

oneDPolyPatchType empty; // wedge

extrudeModel    linearNormal;

nLayers         10;

expansionRatio  1;

adaptMesh       true; // mapped for both

linearNormalCoeffs
{
    thickness       0.01;
}

// * * * * * * * * * * * * * * * * * * * * * * * * * * * * * * * * * * * * * //
