/*--------------------------------*- C++ -*----------------------------------*\
| =========                 |                                                 |
| \\      /  F ield         | OpenFOAM: The Open Source CFD Toolbox           |
|  \\    /   O peration     | Version:  4.x                                   |
|   \\  /    A nd           | Web:      www.OpenFOAM.org                      |
|    \\/     M anipulation  |                                                 |
\*---------------------------------------------------------------------------*/
FoamFile
{
    version     2.0;
    format      ascii;
    class       dictionary;
    object      topoSetDict;
}

// * * * * * * * * * * * * * * * * * * * * * * * * * * * * * * * * * * * * * //

actions
(
    {
        name    f0;
        type    faceSet;
        action  new;
        source  boxToFace;
        sourceInfo
        {
            box (0.09999 0.24 0)(0.10001 0.25 0.1);
	    //box (0.08 0.1999 0)(0.09 0.2001 0.1);
	    //box (0.08 0.2499 0)(0.09 0.25001 0.1);
        }
    }
);

// ************************************************************************* //

