/*--------------------------------*- C++ -*----------------------------------*\
  =========                 |
  \\      /  F ield         | OpenFOAM: The Open Source CFD Toolbox
   \\    /   O peration     | Website:  https://openfoam.org
    \\  /    A nd           | Version:  dev
     \\/     M anipulation  |
\*---------------------------------------------------------------------------*/
FoamFile
{
    version     2.0;
    format      binary;
    class       dictionary;
    location    "constant";
    object      pyrolysisZones;
}
// * * * * * * * * * * * * * * * * * * * * * * * * * * * * * * * * * * * * * //

pyrolysis
{
    active          true;

    pyrolysisModel  reactingOneDim;

    regionName pyrolysisRegion;

    reactingOneDimCoeffs
    {
        filmCoupled     false;
    
        gasHSource      false; // Energy source term due to pyrolysis gas
        qrHSource       false; // Energy source term due in depth radiation
        
        radFluxName     qr;
        
        useChemistrySolvers true;
        
        minimumDelta    1e-6;
        reactionDeltaMin 1e-6;

        moveMesh        false;
    }
    
    infoOutput  true;
}


// ************************************************************************* //
