/*--------------------------------*- C++ -*----------------------------------*\
| =========                 |                                                 |
| \\      /  F ield         | OpenFOAM: The Open Source CFD Toolbox           |
|  \\    /   O peration     | Version:  4.x                                   |
|   \\  /    A nd           | Web:      www.OpenFOAM.org                      |
|    \\/     M anipulation  |                                                 |
\*---------------------------------------------------------------------------*/
FoamFile
{
    version     2.0;
    format      ascii;
    class       dictionary;
    location    "constant";
    object      turbulenceProperties;
}
// * * * * * * * * * * * * * * * * * * * * * * * * * * * * * * * * * * * * * //

simulationType     LES;

LES
{
    LESModel       kEqn;

    delta          cubeRootVol;

    turbulence     on;

    printCoeffs    on;

    kEqnCoeffs
    {
    }

    WALECoeffs
    {
	Cw 0.5;
    }

    cubeRootVolCoeffs
    {
        deltaCoeff      1;
    }
}


// ************************************************************************* //
