/*--------------------------------*- C++ -*----------------------------------*\
  =========                 |
  \\      /  F ield         | OpenFOAM: The Open Source CFD Toolbox
   \\    /   O peration     | Website:  https://openfoam.org
    \\  /    A nd           | Version:  7
     \\/     M anipulation  |
\*---------------------------------------------------------------------------*/
FoamFile
{
    version     2.0;
    format      ascii;
    class       dictionary;
    location    "system";
    object      decomposeParDict;
}
// * * * * * * * * * * * * * * * * * * * * * * * * * * * * * * * * * * * * * //

numberOfSubdomains 3;

method          structured;

structuredCoeffs
{
    method      hierarchical;
    patches     (region0_to_panelRegion_fRight_zone region0_to_panelRegion_fLeft_zone);

    hierarchicalCoeffs
    {
         n               (1 3 1);
         delta           0.001;
         order           xyz;
    }
}


// ************************************************************************* //
