/*--------------------------------*- C++ -*----------------------------------*\
| =========                 |                                                 |
| \\      /  F ield         | OpenFOAM: The Open Source CFD Toolbox           |
|  \\    /   O peration     | Version:  4.x                                   |
|   \\  /    A nd           | Web:      www.OpenFOAM.org                      |
|    \\/     M anipulation  |                                                 |
\*---------------------------------------------------------------------------*/
FoamFile
{
    version         2.0;
    format          ascii;
    class           dictionary;
    object          controlDict;
}
// * * * * * * * * * * * * * * * * * * * * * * * * * * * * * * * * * * * * * //

libs ( "libOpenFOAM.so" ) ;

application     diffusionFireFoam;

startFrom       latestTime;

startTime       0.0;

stopAt          endTime;

endTime         15;

deltaT          1e-5;

writeControl    adjustableRunTime;

writeInterval   0.025;

purgeWrite      0;

writeFormat     ascii;

writePrecision  6;

writeCompression uncompressed;

timeFormat      general;

timePrecision   6;

graphFormat     raw;

runTimeModifiable yes;

adjustTimeStep  yes;

maxCo           0.4;

functions
{   
    /*varRho
    {
       libs ("libutilityFunctionObjects.so");
        
       type coded;
       name varRho;

       codeExecute
       #{ 
          const volScalarField& rho = mesh().lookupObject<volScalarField>("rho");
          //const volScalarField& delta = mesh().lookupObject<volScalarField>("delta");
          
          volVectorField gradRho = fvc::grad(rho);
          volScalarField divRho = mag(gradRho.component(0)) + mag(gradRho.component(1)) + mag(gradRho.component(2));
          //volScalarField divRho = mag(gradRho);
          //divRho *= delta;
          //divRho.ref() *= pow(mesh().V(),1/3);
          divRho -= min(divRho);
          divRho /= max(divRho);
          
          static autoPtr<volScalarField> pField;
          if(!pField.valid())
          {
              pField.set
              (
                  new volScalarField
                  (
                      IOobject
                      (
                          "varRho",
                          mesh().time().timeName(),
                          rho.mesh(),
                          IOobject::NO_READ,
                          IOobject::AUTO_WRITE
                      ),
                      divRho
                  )
              );
          }
          
          volScalarField& varRho = pField();
          
          varRho.checkIn();
          
          varRho = divRho;
      #};
    }*/
    
    /*Enstrophy
    {
       libs ("libutilityFunctionObjects.so");

       type coded;
       name Enstrophy;

       codeExecute
       #{
          const volVectorField& U = mesh().lookupObject<volVectorField>("U");

          volScalarField tenst = 0.5*magSqr(fvc::curl(U));

          tenst -= min(tenst);
          tenst /= max(tenst);

          static autoPtr<volScalarField> pField;
          if(!pField.valid())
          {
              pField.set
              (
                  new volScalarField
                  (
                      IOobject
                      (
                          "enstrophy",
                          mesh().time().timeName(),
                          U.mesh(),
                          IOobject::NO_READ,
                          IOobject::AUTO_WRITE
                      ),
                      tenst
                  )
              );
          }

          volScalarField& enstrophy = pField();

          enstrophy.checkIn();

          enstrophy = tenst;
      #};
    }*/

    rRho
    {
       libs ("libutilityFunctionObjects.so");
        
       type coded;
       name rRho;

       codeExecute
       #{
          const volScalarField& rho = mesh().lookupObject<volScalarField>("rho");
          
          volScalarField rrho = 1/(rho + dimensionedScalar("VSMALL",dimDensity,VSMALL));
          rrho -= min(rrho);
          rrho /= max(rrho);
          
          static autoPtr<volScalarField> pField;
          if(!pField.valid())
          {
              pField.set
              (
                  new volScalarField
                  (
                      IOobject
                      (
                          "rRho",
                          mesh().time().timeName(),
                          rho.mesh(),
                          IOobject::NO_READ,
                          IOobject::AUTO_WRITE
                      ),
                      rrho
                  )
              );
          }
          
          volScalarField& rRho = pField();
          
          rRho.checkIn();
          
          rRho = rrho;
      #};
    }
    
    /*LESdelta
    {
       libs ("libutilityFunctionObjects.so");
        
       type coded;
       name LESdelta;

       codeExecute
       #{
          const volScalarField& delta = mesh().lookupObject<volScalarField>("rho");
          
          static autoPtr<volScalarField> pField;
          if(!pField.valid())
          {
              pField.set
              (
                  new volScalarField
                  (
                      IOobject
                      (
                          "LESdelta",
                          mesh().time().timeName(),
                          delta.mesh(),
                          IOobject::NO_READ,
                          IOobject::AUTO_WRITE
                      ),
                      delta
                  )
              );
          }
          
          volScalarField& LESdelta = pField();
          
          LESdelta.checkIn();
          
          LESdelta = delta;
      #};
    }*/
}


// ************************************************************************* //
