/*--------------------------------*- C++ -*----------------------------------*\
| =========                 |                                                 |
| \\      /  F ield         | OpenFOAM: The Open Source CFD Toolbox           |
|  \\    /   O peration     | Version:  2.2.2                                 |
|   \\  /    A nd           | Web:      www.OpenFOAM.org                      |
|    \\/     M anipulation  |                                                 |
\*---------------------------------------------------------------------------*/
FoamFile
{
    version     2.0;
    format      ascii;
    class       dictionary;
    location    "system";
    object      fvSchemes;
}
// * * * * * * * * * * * * * * * * * * * * * * * * * * * * * * * * * * * * * //

ddtSchemes
{
    default         Euler;
}

gradSchemes
{
    default         Gauss linear;
    grad(h)         cellMDLimited Gauss linear 1;
}

divSchemes
{
    energy          Gamma   0.2;
    turbulence      Gamma   0.2;
    species         Gamma01 0.2;
    velocity        GammaV  0.2;

    default         none;
    div(phi,U)      Gauss $velocity;
    div(phi,K)      Gauss $energy;
    div(phi,k)      Gauss $turbulence;
    div(phi,Yi_h)   Gauss multivariateSelection
    {
        O2          $species;
        CH4         $species;
        N2          $species;
        H2O         $species;
        CO2         $species;
        h           $energy;
    };
    div(((rho*nuEff)*dev2(T(grad(U))))) Gauss linear;
}

laplacianSchemes
{
    default         Gauss linear corrected;
}

interpolationSchemes
{
    default             linear;
}

snGradSchemes
{
    default         corrected;
}

// ************************************************************************* //
