/*--------------------------------*- C++ -*----------------------------------*\
| =========                 |                                                 |
| \\      /  F ield         | OpenFOAM: The Open Source CFD Toolbox           |
|  \\    /   O peration     | Version:  2.2.2                                 |
|   \\  /    A nd           | Web:      www.OpenFOAM.org                      |
|    \\/     M anipulation  |                                                 |
\*---------------------------------------------------------------------------*/
FoamFile
{
    version     2.0;
    format      ascii;
    class       dictionary;
    location    "system";
    object      fvSchemes;
}
// * * * * * * * * * * * * * * * * * * * * * * * * * * * * * * * * * * * * * //

ddtSchemes
{
    default         backward;
}

gradSchemes
{
    gradScheme      Gauss linear;

    default         $gradScheme;
    grad(h)         cellMDLimited $gradScheme 1;
    //grad(Ii_h)      cellMDLimited $gradScheme 1;
}

divSchemes
{
    limited         limitedLinear 1;
    limited01       limitedLinear01 1;

    default         none;
    div(phi,U)      Gauss LUST grad(U);
    div(phi,K)      Gauss $limited;
    div(phi,k)      Gauss $limited;
    div(phi,Yi_h)   Gauss multivariateSelection
    {
        h           $limited;
        ".*"        $limited01;
    };
    div(((rho*nuEff)*dev2(T(grad(U))))) Gauss linear;
    div(Ji,Ii_h)    Gauss upwind;
}

laplacianSchemes
{
    default         Gauss linear limited corrected 0.33;
}

interpolationSchemes
{
    default         linear;
}

snGradSchemes
{
    default         limited corrected 0.33;
}

// ************************************************************************* //
