/*--------------------------------*- C++ -*----------------------------------*\
| =========                 |                                                 |
| \\      /  F ield         | OpenFOAM: The Open Source CFD Toolbox           |
|  \\    /   O peration     | Version:  4.x                                   |
|   \\  /    A nd           | Web:      www.OpenFOAM.org                      |
|    \\/     M anipulation  |                                                 |
\*---------------------------------------------------------------------------*/
FoamFile
{
    version     2.0;
    format      ascii;
    class       dictionary;
    location    "system";
    object      fvSolution;
}
// * * * * * * * * * * * * * * * * * * * * * * * * * * * * * * * * * * * * * //

solvers
{
    "rho.*"
    {
        solver          diagonal;
    }
    
    "(p_rgh|ph_rgh|pcorr|pcorr_0).*"
    {
        solver          PCG;
        preconditioner
        {
            preconditioner  GAMG;
            smoother        DICGaussSeidel;
            tolerance       1e-06;
            relTol          0;
        }
        tolerance       1e-06;
        relTol          0;
    }
    
    "(U|h|Yi|k).*"
    {
        solver         PBiCGStab;
        preconditioner DILU;
        tolerance      1e-8;
        relTol         0;
    }
    
    "Ii.*"
    {
        solver         PBiCGStab;
        preconditioner
        {
            preconditioner  GAMG;
            smoother        DILUGaussSeidel;
            tolerance       1e-4;
            relTol          0;
        }
        maxIter        10;
        tolerance      1e-4;
        relTol         0;
    }

    "G.*"
    {  
        solver          PCG;
        preconditioner
        {
            preconditioner  GAMG;
            smoother        DICGaussSeidel;
            tolerance       1e-4;
            relTol          0;
        }
        tolerance       1e-4;
        relTol          0;
    }
}

PIMPLE
{
    //PIMPLE controls
    momentumPredictor yes;
    hydrostaticInitialization yes;
    turbOnFinalIterOnly no;
    nOuterCorrectors 3;
    nCorrectors      2;
    nNonOrthogonalCorrectors 0;
    
    //Custom controls
    correctPhi      true;
    nCorrPhi        1;
    startDyMIndex   1;
}

relaxationFactors
{
    equations
    {
        Ii      0.2;
        ".*"    1;
    }
}


// ************************************************************************* //
