/*--------------------------------*- C++ -*----------------------------------*\
  =========                 |
  \\      /  F ield         | OpenFOAM: The Open Source CFD Toolbox
   \\    /   O peration     | Website:  https://openfoam.org
    \\  /    A nd           | Version:  dev
     \\/     M anipulation  |
\*---------------------------------------------------------------------------*/
FoamFile
{
    version     2.0;
    format      ascii;
    class       dictionary;
    object      setFieldsDict;
}
// * * * * * * * * * * * * * * * * * * * * * * * * * * * * * * * * * * * * * //

defaultFieldValues
(
    volScalarFieldValue T 300
);

regions
(
    // Set cell values
    // (does zerogradient on boundaries)
    boxToCell
    {
        //box (-25 -60 -15) (-20 60 15); //CL for terrain.stl
        box (-42.5 -60 -20)(-37.5 60 20); //CL for inclinedSlope.stl

        fieldValues
        (
            volScalarFieldValue T 800
        );
    }
    
    // Set boundary values
    boxToFace
    {
        //box (-42.5 4.99 -15)(-37.5 5.01 15); //CL for terrain.stl
        box (-42.5 4.99 -20)(-37.5 5.01 20); //CL for inclinedSlope.stl
        
        fieldValues
        (
            volScalarFieldValue T 800
        );
    }
);

// ************************************************************************* //

