/*--------------------------------*- C++ -*----------------------------------*\
  =========                 |
  \\      /  F ield         | OpenFOAM: The Open Source CFD Toolbox
   \\    /   O peration     | Website:  https://openfoam.org
    \\  /    A nd           | Version:  dev
     \\/     M anipulation  |
\*---------------------------------------------------------------------------*/
FoamFile
{
    version     2.0;
    format      ascii;
    class       polyBoundaryMesh;
    location    "constant/polyMesh";
    object      boundary;
}
// * * * * * * * * * * * * * * * * * * * * * * * * * * * * * * * * * * * * * //

4
(
    base
    {
        type            patch;
        nFaces          952;
        startFace       86490;
    }
    outlet
    {
        type            patch;
        nFaces          961;
        startFace       87442;
    }
    sides
    {
        type            patch;
        nFaces          3844;
        startFace       88403;
    }
    inlet
    {
        type            patch;
        nFaces          9;
        startFace       92247;
    }
)

// ************************************************************************* //
