/*--------------------------------*- C++ -*----------------------------------*\
  =========                 |
  \\      /  F ield         | OpenFOAM: The Open Source CFD Toolbox
   \\    /   O peration     | Website:  https://openfoam.org
    \\  /    A nd           | Version:  dev
     \\/     M anipulation  |
\*---------------------------------------------------------------------------*/
FoamFile
{
    version     2.0;
    format      ascii;
    class       polyBoundaryMesh;
    location    "constant/polyMesh";
    object      boundary;
}
// * * * * * * * * * * * * * * * * * * * * * * * * * * * * * * * * * * * * * //

4
(
    base
    {
        type            patch;
        nFaces          1027;
        startFace       85229;
    }
    outlet
    {
        type            patch;
        nFaces          961;
        startFace       86256;
    }
    sides
    {
        type            patch;
        nFaces          3720;
        startFace       87217;
    }
    inlet
    {
        type            patch;
        nFaces          144;
        startFace       90937;
    }
)

// ************************************************************************* //
