/*--------------------------------*- C++ -*----------------------------------*\
| =========                 |                                                 |
| \\      /  F ield         | foam-extend: Open Source CFD                    |
|  \\    /   O peration     | Version:     3.0                                |
|   \\  /    A nd           | Web:         http://www.extend-project.de       |
|    \\/     M anipulation  |                                                 |
\*---------------------------------------------------------------------------*/
FoamFile
{
    version     2.0;
    format      ascii;
    class       dictionary;
    object      blockMeshDict;
}
// * * * * * * * * * * * * * * * * * * * * * * * * * * * * * * * * * * * * * //

convertToMeters 0.1;

vertices
(

    (1		0		0)
    (3		0		0)
    (0		1		0)
    (1		1		0)
    (3		1		0)
    (0		1.5		0)
    (1		1.5		0)
    (3		1.5		0)
    (1		0		1)
    (3		0		1)
    (0		1		1)
    (1		1		1)
    (3		1		1)
    (0		1.5		1)
    (1		1.5		1)
    (3		1.5		1)

/*
    (2		0		0)
    (5		0		0)
    (0		1		0)
    (2		1		0)
    (5		1		0)
    (0		1.5		0)
    (2		1.5		0)
    (5		1.5		0)
    (2		0		1)
    (5		0		1)
    (0		1		1)
    (2		1		1)
    (5		1		1)
    (0		1.5		1)
    (2		1.5		1)
    (5		1.5		1)
*/
);

blocks
(
    hex (0 1 4 3 8 9 12 11) (40 20 1) simpleGrading (1 1 1)
    hex (2 3 6 5 10 11 14 13) (20 10 1) simpleGrading (1 1 1)
    hex (3 4 7 6 11 12 15 14) (40 10 1) simpleGrading (1 1 1)
);

boundary
(
    inlet
    {
        type patch;
        faces
        (
            (2 5 13 10)
        );
    }
    outlet
    {
        type patch;
        faces
        (
            (1 4 12 9)
            (4 7 15 12)
        );
    }
    lowerWall
    {
        type wall;
        faces
        (
            (2 3 11 10)
            (0 3 11 8)
            (0 1 9 8)
        );
    }
);


mergePatchPairs
(
);

// ************************************************************************* //

