/*--------------------------------*- C++ -*----------------------------------*\
| =========                 |                                                 |
| \\      /  F ield         | OpenFOAM: The Open Source CFD Toolbox           |
|  \\    /   O peration     | Version:  4.x                                   |
|   \\  /    A nd           | Web:      www.OpenFOAM.org                      |
|    \\/     M anipulation  |                                                 |
\*---------------------------------------------------------------------------*/
FoamFile
{
    version     2.0;
    format      ascii;
    class       dictionary;
    object      blockMeshDict;
}
// * * * * * * * * * * * * * * * * * * * * * * * * * * * * * * * * * * * * * //

convertToMeters 1;

xMin -0.32;
zMin -0.32;
x 0.48;
y 1.60;
z 0.48;

vertices
(
    ( $xMin 0   $zMin)
    ( $x    0   $zMin)
    ( $x    $y  $zMin)
    ( $xMin $y  $zMin)
    ( $xMin 0   $z)
    ( $x    0   $z)
    ( $x    $y  $z)
    ( $xMin $y  $z)
);

blocks
(
    hex (0 1 2 3 4 5 6 7) (10 20 10) simpleGrading (1 1 1)
);

edges
(
);

boundary
(
    base
    {
        type wall;
        faces
        (
            (0 1 5 4)
        );
    }
    outlet
    {
        type patch;
        faces
        (
            (3 2 6 7)
        );
    }
    sides
    {
        type patch;
        faces
        (
            (0 4 7 3)
            (0 1 2 3)
            (1 5 6 2)
            (4 5 6 7)
        );
    }
);

mergePatchPairs
(
);

// ************************************************************************* //
