/*--------------------------------*- C++ -*----------------------------------*\
  =========                 |
  \\      /  F ield         | OpenFOAM: The Open Source CFD Toolbox
   \\    /   O peration     | Website:  https://openfoam.org
    \\  /    A nd           | Version:  7
     \\/     M anipulation  |
\*---------------------------------------------------------------------------*/
FoamFile
{
    version     2.0;
    format      ascii;
    class       dictionary;
    location    "constant";
    object      reactions;
}
// * * * * * * * * * * * * * * * * * * * * * * * * * * * * * * * * * * * * * //

species
(
    v
    char
);

gaseousSpecies
(
    gas
);

reactions
{
    charReaction
    {
        type        irreversibleArrheniusSolidReaction;
        reaction    "v^6.51 = char + gas";
        A           5e15;
        Ta          29107;
        Tcrit       400;
    }
}


// ************************************************************************* //
