/*--------------------------------*- C++ -*----------------------------------*\
  =========                 |
  \\      /  F ield         | OpenFOAM: The Open Source CFD Toolbox
   \\    /   O peration     | Website:  https://openfoam.org
    \\  /    A nd           | Version:  dev
     \\/     M anipulation  |
\*---------------------------------------------------------------------------*/

FoamFile
{
    version     2.0;
    format      ascii;
    class       dictionary;
    location    "constant";
    object      combustionProperties;
}
// * * * * * * * * * * * * * * * * * * * * * * * * * * * * * * * * * * * * * //

combustionModel eddyDissipationModel;
//combustionModel eddyDissipationDiffusionModel;
//combustionModel infinitelyFastChemistry;
//combustionModel laminar;

active  on;

eddyDissipationDiffusionModelCoeffs
{
    semiImplicit no;
    C_EDC        4;
    C_Diff       2;
}

eddyDissipationModelCoeffs
{
    semiImplicit no;
    C_EDC        4;
    C_Diff       0.4;
    C_Stiff	 1e-10;
}

infinitelyFastChemistryCoeffs
{
    semiImplicit yes;
    C       5;
}

laminarCoeffs
{
}


// ************************************************************************* //
