/*--------------------------------*- C++ -*----------------------------------*\
  =========                 |
  \\      /  F ield         | OpenFOAM: The Open Source CFD Toolbox
   \\    /   O peration     | Website:  https://openfoam.org
    \\  /    A nd           | Version:  dev
     \\/     M anipulation  |
\*---------------------------------------------------------------------------*/

FoamFile
{
    version     2.0;
    format      ascii;
    class       dictionary;
    location    "constant";
    object      radiationProperties;
}
// * * * * * * * * * * * * * * * * * * * * * * * * * * * * * * * * * * * * * //

radiation       on;

radiationModel  fvDOM;

fvDOMCoeffs
{
    nPhi        3;      // azimuthal angles in PI/2 on X-Y.(from Y to X)
    nTheta      6;      // polar angles in PI (from Z to X-Y plane)
    tolerance   1e-4;   // convergence tolerance for radiation iteration
    maxIter     1;      // maximum number of iterations
}

// Number of flow iterations per radiation iteration
solverFreq 10;

absorptionEmissionModel greyMeanCombustion;

greyMeanCombustionCoeffs
{
    lookUpTableFileName     none;

    EhrrCoeff               0.2;
}

scatterModel    none;

sootModel       none;

mixtureFractionSootCoeffs
{
    // reac = prod + nuSoot soot
    nuSoot              0.055;
    Wsoot               12;
}

// ************************************************************************* //
